256
6.3496
Ar	-2.77795           	-2.77795           	-2.77795           	0.748574           	0.719838           	1.0681           	
Ar	-1.98425           	-1.98425           	-2.77795           	0.662999           	-0.608674           	-0.663861           	
Ar	-1.98425           	-2.77795           	-1.98425           	0.17498           	0.396394           	-0.952985           	
Ar	-2.77795           	-1.98425           	-1.98425           	0.995822           	-0.595571           	0.834842           	
Ar	-2.77795           	-2.77795           	-1.19055           	-0.127856           	-1.43894           	1.06683           	
Ar	-1.98425           	-1.98425           	-1.19055           	-1.50564           	0.277235           	1.36777           	
Ar	-1.98425           	-2.77795           	-0.39685           	-1.46619           	0.242882           	0.597827           	
Ar	-2.77795           	-1.98425           	-0.39685           	0.164216           	-1.50096           	0.596735           	
Ar	-2.77795           	-2.77795           	0.39685           	0.544528           	-1.34244           	-0.399429           	
Ar	-1.98425           	-1.98425           	0.39685           	-0.830824           	-1.07874           	0.346951           	
Ar	-1.98425           	-2.77795           	1.19055           	0.912262           	1.21086           	-0.38659           	
Ar	-2.77795           	-1.98425           	1.19055           	0.410153           	0.45811           	0.508133           	
Ar	-2.77795           	-2.77795           	1.98425           	1.13286           	-0.78266           	-0.548852           	
Ar	-1.98425           	-1.98425           	1.98425           	-1.39033           	-1.20259           	0.358974           	
Ar	-1.98425           	-2.77795           	2.77795           	0.831082           	0.210582           	0.423427           	
Ar	-2.77795           	-1.98425           	2.77795           	0.327701           	0.24597           	-0.752717           	
Ar	-2.77795           	-1.19055           	-2.77795           	0.125266           	0.320802           	0.993562           	
Ar	-1.98425           	-0.39685           	-2.77795           	-0.847113           	-0.930732           	0.995999           	
Ar	-1.98425           	-1.19055           	-1.98425           	1.13619           	1.15482           	1.15696           	
Ar	-2.77795           	-0.39685           	-1.98425           	-0.833444           	-1.09175           	-1.37516           	
Ar	-2.77795           	-1.19055           	-1.19055           	0.900078           	1.36154           	1.3391           	
Ar	-1.98425           	-0.39685           	-1.19055           	-1.05672           	0.355941           	0.343826           	
Ar	-1.98425           	-1.19055           	-0.39685           	0.837984           	0.0730536           	1.06456           	
Ar	-2.77795           	-0.39685           	-0.39685           	-1.28108           	0.223751           	1.36537           	
Ar	-2.77795           	-1.19055           	0.39685           	0.464469           	-0.360917           	0.122574           	
Ar	-1.98425           	-0.39685           	0.39685           	-0.682311           	-1.44897           	-1.08484           	
Ar	-1.98425           	-1.19055           	1.19055           	-0.0484581           	0.217328           	0.739363           	
Ar	-2.77795           	-0.39685           	1.19055           	-0.625103           	0.911241           	1.31203           	
Ar	-2.77795           	-1.19055           	1.98425           	-1.19931           	0.631683           	1.01347           	
Ar	-1.98425           	-0.39685           	1.98425           	1.34422           	1.33927           	1.42512           	
Ar	-1.98425           	-1.19055           	2.77795           	1.35563           	0.823594           	1.33328           	
Ar	-2.77795           	-0.39685           	2.77795           	1.12452           	1.3079           	0.235838           	
Ar	-2.77795           	0.39685           	-2.77795           	-0.101866           	0.730136           	-1.14449           	
Ar	-1.98425           	1.19055           	-2.77795           	-0.60751           	0.990087           	0.582659           	
Ar	-1.98425           	0.39685           	-1.98425           	-0.812345           	0.0388064           	-1.23164           	
Ar	-2.77795           	1.19055           	-1.98425           	0.696799           	0.897522           	-1.17721           	
Ar	-2.77795           	0.39685           	-1.19055           	0.998533           	-0.566686           	0.543519           	
Ar	-1.98425           	1.19055           	-1.19055           	0.167689           	0.349238           	0.00138061           	
Ar	-1.98425           	0.39685           	-0.39685           	-0.0904887           	0.690955           	-0.820316           	
Ar	-2.77795           	1.19055           	-0.39685           	-0.647223           	0.619423           	-0.934429           	
Ar	-2.77795           	0.39685           	0.39685           	-0.792312           	0.559299           	1.39256           	
Ar	-1.98425           	1.19055           	0.39685           	-1.02924           	0.268064           	1.24708           	
Ar	-1.98425           	0.39685           	1.19055           	0.593165           	-1.24955           	0.52384           	
Ar	-2.77795           	1.19055           	1.19055           	0.835247           	-0.316034           	0.0605481           	
Ar	-2.77795           	0.39685           	1.98425           	-0.1523           	0.412647           	-1.35403           	
Ar	-1.98425           	1.19055           	1.98425           	0.00263238           	-0.306304           	1.04689           	
Ar	-1.98425           	0.39685           	2.77795           	0.211997           	-0.723521           	-0.973171           	
Ar	-2.77795           	1.19055           	2.77795           	-0.814691           	0.985195           	0.879464           	
Ar	-2.77795           	1.98425           	-2.77795           	0.57326           	-0.521043           	0.117039           	
Ar	-1.98425           	2.77795           	-2.77795           	1.13951           	0.37276           	-0.716917           	
Ar	-1.98425           	1.98425           	-1.98425           	-1.36512           	1.12147           	1.34578           	
Ar	-2.77795           	2.77795           	-1.98425           	1.41401           	-1.32352           	0.160463           	
Ar	-2.77795           	1.98425           	-1.19055           	1.09089           	0.810674           	0.414309           	
Ar	-1.98425           	2.77795           	-1.19055           	0.044523           	0.230171           	-1.35511           	
Ar	-1.98425           	1.98425           	-0.39685           	-1.46514           	-1.33788           	0.560939           	
Ar	-2.77795           	2.77795           	-0.39685           	-1.43259           	0.20578           	-1.19874           	
Ar	-2.77795           	1.98425           	0.39685           	1.00087           	-0.997973           	-0.418869           	
Ar	-1.98425           	2.77795           	0.39685           	1.41427           	-0.271637           	-0.887053           	
Ar	-1.98425           	1.98425           	1.19055           	0.723531           	-1.11413           	0.0953004           	
Ar	-2.77795           	2.77795           	1.19055           	-0.729637           	-1.39036           	-0.985319           	
Ar	-2.77795           	1.98425           	1.98425           	-0.0599839           	-1.21446           	-1.31722           	
Ar	-1.98425           	2.77795           	1.98425           	-0.284412           	-1.2162           	-1.13735           	
Ar	-1.98425           	1.98425           	2.77795           	1.26262           	1.41572           	1.17673           	
Ar	-2.77795           	2.77795           	2.77795           	0.106724           	0.0444929           	-0.0464828           	
Ar	-1.19055           	-2.77795           	-2.77795           	0.138189           	0.120384           	0.119035           	
Ar	-0.39685           	-1.98425           	-2.77795           	-0.871079           	0.22882           	-1.12857           	
Ar	-0.39685           	-2.77795           	-1.98425           	-0.683254           	-0.186056           	-0.623142           	
Ar	-1.19055           	-1.98425           	-1.98425           	0.284447           	-0.187533           	0.608618           	
Ar	-1.19055           	-2.77795           	-1.19055           	0.783964           	-0.879753           	0.997887           	
Ar	-0.39685           	-1.98425           	-1.19055           	-0.690942           	-0.0683625           	1.11092           	
Ar	-0.39685           	-2.77795           	-0.39685           	-0.289691           	1.41268           	1.39986           	
Ar	-1.19055           	-1.98425           	-0.39685           	-0.220346           	-0.287481           	-1.26972           	
Ar	-1.19055           	-2.77795           	0.39685           	0.0288792           	-0.44061           	-1.30738           	
Ar	-0.39685           	-1.98425           	0.39685           	-0.364602           	1.20714           	0.240515           	
Ar	-0.39685           	-2.77795           	1.19055           	0.975486           	-0.0704207           	-1.09248           	
Ar	-1.19055           	-1.98425           	1.19055           	-0.475686           	0.599527           	0.639737           	
Ar	-1.19055           	-2.77795           	1.98425           	-0.217681           	-1.49948           	-0.999699           	
Ar	-0.39685           	-1.98425           	1.98425           	0.545747           	0.325997           	0.316165           	
Ar	-0.39685           	-2.77795           	2.77795           	-0.415842           	-0.305789           	0.939809           	
Ar	-1.19055           	-1.98425           	2.77795           	-0.988161           	0.544296           	-0.581933           	
Ar	-1.19055           	-1.19055           	-2.77795           	-1.44745           	-1.16115           	-0.622633           	
Ar	-0.39685           	-0.39685           	-2.77795           	1.33898           	0.159536           	0.593283           	
Ar	-0.39685           	-1.19055           	-1.98425           	-1.50094           	-1.22733           	-1.30071           	
Ar	-1.19055           	-0.39685           	-1.98425           	-1.42174           	-0.0509098           	1.40983           	
Ar	-1.19055           	-1.19055           	-1.19055           	0.205343           	-0.491174           	-0.11397           	
Ar	-0.39685           	-0.39685           	-1.19055           	0.499432           	0.574167           	-0.967822           	
Ar	-0.39685           	-1.19055           	-0.39685           	-0.431038           	-1.05926           	-0.963903           	
Ar	-1.19055           	-0.39685           	-0.39685           	-0.0441671           	1.02751           	0.865491           	
Ar	-1.19055           	-1.19055           	0.39685           	-1.29821           	-0.804083           	-0.893677           	
Ar	-0.39685           	-0.39685           	0.39685           	1.02817           	-0.251217           	1.15402           	
Ar	-0.39685           	-1.19055           	1.19055           	-1.12397           	-0.157636           	1.49627           	
Ar	-1.19055           	-0.39685           	1.19055           	-0.360032           	-0.234402           	0.202423           	
Ar	-1.19055           	-1.19055           	1.98425           	-1.33696           	-0.194313           	0.478485           	
Ar	-0.39685           	-0.39685           	1.98425           	-1.25109           	-0.0750282           	-1.0258           	
Ar	-0.39685           	-1.19055           	2.77795           	-1.41147           	-1.28544           	-0.0135812           	
Ar	-1.19055           	-0.39685           	2.77795           	-0.138868           	0.755023           	-0.892794           	
Ar	-1.19055           	0.39685           	-2.77795           	0.27988           	-1.09177           	-0.448662           	
Ar	-0.39685           	1.19055           	-2.77795           	0.702547           	0.405095           	-0.874533           	
Ar	-0.39685           	0.39685           	-1.98425           	-0.00216794           	0.647912           	-0.175218           	
Ar	-1.19055           	1.19055           	-1.98425           	0.490725           	0.260332           	1.07696           	
Ar	-1.19055           	0.39685           	-1.19055           	0.074534           	0.677389           	-0.534054           	
Ar	-0.39685           	1.19055           	-1.19055           	0.000594654           	-1.09839           	0.734941           	
Ar	-0.39685           	0.39685           	-0.39685           	-1.36719           	-0.894322           	-0.912751           	
Ar	-1.19055           	1.19055           	-0.39685           	0.497867           	-0.604388           	0.515617           	
Ar	-1.19055           	0.39685           	0.39685           	0.858633           	-0.47483           	0.733579           	
Ar	-0.39685           	1.19055           	0.39685           	-0.725155           	0.927329           	0.0352221           	
Ar	-0.39685           	0.39685           	1.19055           	-0.23138           	-0.208541           	0.446854           	
Ar	-1.19055           	1.19055           	1.19055           	0.706528           	-0.921744           	-0.601431           	
Ar	-1.19055           	0.39685           	1.98425           	1.21857           	0.617115           	1.54988           	
Ar	-0.39685           	1.19055           	1.98425           	-0.526859           	-0.30791           	0.356831           	
Ar	-0.39685           	0.39685           	2.77795           	-1.0201           	1.30765           	-0.419159           	
Ar	-1.19055           	1.19055           	2.77795           	-0.167588           	-0.107505           	-0.0141553           	
Ar	-1.19055           	1.98425           	-2.77795           	-1.00285           	0.0663334           	0.594919           	
Ar	-0.39685           	2.77795           	-2.77795           	-0.529035           	-0.85155           	1.49393           	
Ar	-0.39685           	1.98425           	-1.98425           	1.37315           	-1.40867           	-0.434282           	
Ar	-1.19055           	2.77795           	-1.98425           	0.536525           	-0.592796           	-0.960333           	
Ar	-1.19055           	1.98425           	-1.19055           	-0.998459           	0.716851           	0.334523           	
Ar	-0.39685           	2.77795           	-1.19055           	0.834965           	0.00762981           	0.916176           	
Ar	-0.39685           	1.98425           	-0.39685           	-1.33667           	-0.189554           	0.079911           	
Ar	-1.19055           	2.77795           	-0.39685           	-1.357           	0.824613           	1.2754           	
Ar	-1.19055           	1.98425           	0.39685           	0.3864           	1.34554           	1.12967           	
Ar	-0.39685           	2.77795           	0.39685           	1.35381           	-0.237802           	-0.431216           	
Ar	-0.39685           	1.98425           	1.19055           	-0.230551           	0.300372           	1.13851           	
Ar	-1.19055           	2.77795           	1.19055           	-1.20584           	1.31236           	-1.16641           	
Ar	-1.19055           	1.98425           	1.98425           	-1.28212           	1.26977           	-1.07169           	
Ar	-0.39685           	2.77795           	1.98425           	-0.329829           	0.390542           	-0.161084           	
Ar	-0.39685           	1.98425           	2.77795           	0.0964086           	0.933109           	-0.897612           	
Ar	-1.19055           	2.77795           	2.77795           	-1.13928           	0.352324           	0.613414           	
Ar	0.39685           	-2.77795           	-2.77795           	1.16347           	0.556678           	-1.02952           	
Ar	1.19055           	-1.98425           	-2.77795           	-0.326825           	0.740704           	1.29849           	
Ar	1.19055           	-2.77795           	-1.98425           	-0.621634           	-0.288646           	1.19065           	
Ar	0.39685           	-1.98425           	-1.98425           	-1.06217           	-0.350585           	-0.500535           	
Ar	0.39685           	-2.77795           	-1.19055           	-0.106817           	0.95989           	1.30323           	
Ar	1.19055           	-1.98425           	-1.19055           	-0.538509           	1.29508           	1.16222           	
Ar	1.19055           	-2.77795           	-0.39685           	-0.318354           	-1.40279           	0.978605           	
Ar	0.39685           	-1.98425           	-0.39685           	-0.00346879           	-0.191591           	-0.0842331           	
Ar	0.39685           	-2.77795           	0.39685           	1.22202           	1.44584           	-0.604504           	
Ar	1.19055           	-1.98425           	0.39685           	-1.2458           	-1.10918           	1.25122           	
Ar	1.19055           	-2.77795           	1.19055           	0.754183           	-1.36146           	0.354516           	
Ar	0.39685           	-1.98425           	1.19055           	1.11123           	-0.147258           	-0.35816           	
Ar	0.39685           	-2.77795           	1.98425           	0.839517           	0.772135           	0.856591           	
Ar	1.19055           	-1.98425           	1.98425           	0.459957           	1.25099           	-0.947374           	
Ar	1.19055           	-2.77795           	2.77795           	1.34599           	-0.271576           	1.51591           	
Ar	0.39685           	-1.98425           	2.77795           	1.07902           	0.730942           	1.35761           	
Ar	0.39685           	-1.19055           	-2.77795           	0.671031           	-1.00316           	1.45822           	
Ar	1.19055           	-0.39685           	-2.77795           	0.0794291           	0.534396           	-0.186751           	
Ar	1.19055           	-1.19055           	-1.98425           	1.38177           	0.340663           	-0.194287           	
Ar	0.39685           	-0.39685           	-1.98425           	-0.792944           	0.635888           	0.199929           	
Ar	0.39685           	-1.19055           	-1.19055           	-1.11193           	-0.0256787           	0.341867           	
Ar	1.19055           	-0.39685           	-1.19055           	0.629153           	-0.330195           	-1.25877           	
Ar	1.19055           	-1.19055           	-0.39685           	-1.29921           	-0.906428           	1.01676           	
Ar	0.39685           	-0.39685           	-0.39685           	0.943947           	1.09456           	0.814372           	
Ar	0.39685           	-1.19055           	0.39685           	1.38314           	1.0248           	-0.910584           	
Ar	1.19055           	-0.39685           	0.39685           	1.32885           	0.688068           	1.32376           	
Ar	1.19055           	-1.19055           	1.19055           	1.11625           	-0.0566506           	-1.13279           	
Ar	0.39685           	-0.39685           	1.19055           	1.00427           	-1.39297           	0.905006           	
Ar	0.39685           	-1.19055           	1.98425           	-0.752691           	-1.42696           	-0.20771           	
Ar	1.19055           	-0.39685           	1.98425           	0.439592           	-0.678873           	-1.0252           	
Ar	1.19055           	-1.19055           	2.77795           	-0.930685           	-0.249779           	0.452516           	
Ar	0.39685           	-0.39685           	2.77795           	0.797751           	-1.03638           	-1.33106           	
Ar	0.39685           	0.39685           	-2.77795           	0.925551           	-0.794563           	-0.73409           	
Ar	1.19055           	1.19055           	-2.77795           	0.372105           	-1.26637           	-1.09291           	
Ar	1.19055           	0.39685           	-1.98425           	-0.383729           	-1.29897           	1.43528           	
Ar	0.39685           	1.19055           	-1.98425           	0.0922578           	-1.38587           	0.669971           	
Ar	0.39685           	0.39685           	-1.19055           	-0.154194           	1.27141           	-0.84006           	
Ar	1.19055           	1.19055           	-1.19055           	0.0995894           	0.859925           	-0.729634           	
Ar	1.19055           	0.39685           	-0.39685           	-0.565611           	-1.30852           	-0.653192           	
Ar	0.39685           	1.19055           	-0.39685           	0.613248           	0.672102           	0.171332           	
Ar	0.39685           	0.39685           	0.39685           	0.974617           	1.28244           	1.42495           	
Ar	1.19055           	1.19055           	0.39685           	-0.143073           	0.664445           	-1.06481           	
Ar	1.19055           	0.39685           	1.19055           	-0.0875619           	0.174246           	-0.355971           	
Ar	0.39685           	1.19055           	1.19055           	0.564918           	-0.869399           	-0.11894           	
Ar	0.39685           	0.39685           	1.98425           	0.858575           	0.287899           	0.0854854           	
Ar	1.19055           	1.19055           	1.98425           	0.72365           	-1.03559           	0.20301           	
Ar	1.19055           	0.39685           	2.77795           	-0.176586           	0.35124           	0.0210384           	
Ar	0.39685           	1.19055           	2.77795           	0.369924           	-0.964921           	-0.572416           	
Ar	0.39685           	1.98425           	-2.77795           	1.02686           	0.010495           	-0.377536           	
Ar	1.19055           	2.77795           	-2.77795           	-1.19654           	-0.792006           	-1.15881           	
Ar	1.19055           	1.98425           	-1.98425           	0.361363           	-1.23314           	-1.32975           	
Ar	0.39685           	2.77795           	-1.98425           	0.216107           	0.164814           	0.838093           	
Ar	0.39685           	1.98425           	-1.19055           	0.537871           	-1.3385           	-0.44104           	
Ar	1.19055           	2.77795           	-1.19055           	-1.38831           	0.767447           	0.192958           	
Ar	1.19055           	1.98425           	-0.39685           	-0.120676           	0.210272           	-0.972523           	
Ar	0.39685           	2.77795           	-0.39685           	1.35138           	-0.481828           	-0.504719           	
Ar	0.39685           	1.98425           	0.39685           	-0.0158176           	0.882613           	1.34992           	
Ar	1.19055           	2.77795           	0.39685           	1.39179           	-0.163212           	-1.06838           	
Ar	1.19055           	1.98425           	1.19055           	-0.750832           	-0.552102           	0.44551           	
Ar	0.39685           	2.77795           	1.19055           	0.258203           	-0.207614           	1.1569           	
Ar	0.39685           	1.98425           	1.98425           	0.48596           	-1.262           	1.42716           	
Ar	1.19055           	2.77795           	1.98425           	0.542781           	0.495133           	0.138592           	
Ar	1.19055           	1.98425           	2.77795           	-0.189332           	-0.382746           	0.303491           	
Ar	0.39685           	2.77795           	2.77795           	0.756198           	-0.230026           	-0.382442           	
Ar	1.98425           	-2.77795           	-2.77795           	-0.621051           	1.19032           	1.33123           	
Ar	2.77795           	-1.98425           	-2.77795           	-0.207004           	1.12595           	-0.603981           	
Ar	2.77795           	-2.77795           	-1.98425           	0.674848           	-0.305614           	-1.17475           	
Ar	1.98425           	-1.98425           	-1.98425           	0.454559           	-0.329573           	0.165437           	
Ar	1.98425           	-2.77795           	-1.19055           	0.772747           	0.460622           	1.11673           	
Ar	2.77795           	-1.98425           	-1.19055           	-0.351949           	-0.696925           	-0.544262           	
Ar	2.77795           	-2.77795           	-0.39685           	-0.765255           	1.33006           	-0.302865           	
Ar	1.98425           	-1.98425           	-0.39685           	-0.908304           	0.457092           	-1.26111           	
Ar	1.98425           	-2.77795           	0.39685           	0.616858           	-1.14799           	-0.140461           	
Ar	2.77795           	-1.98425           	0.39685           	-0.649858           	1.14923           	1.13291           	
Ar	2.77795           	-2.77795           	1.19055           	0.35427           	-0.887567           	0.869855           	
Ar	1.98425           	-1.98425           	1.19055           	0.11529           	0.446456           	0.542429           	
Ar	1.98425           	-2.77795           	1.98425           	0.897879           	-0.294446           	-1.21657           	
Ar	2.77795           	-1.98425           	1.98425           	1.1097           	-1.25564           	-0.0427409           	
Ar	2.77795           	-2.77795           	2.77795           	-0.295068           	1.05814           	-1.0355           	
Ar	1.98425           	-1.98425           	2.77795           	-0.748543           	-0.709562           	-0.229027           	
Ar	1.98425           	-1.19055           	-2.77795           	0.0937659           	0.0662101           	-0.352346           	
Ar	2.77795           	-0.39685           	-2.77795           	1.17747           	0.698933           	-1.34863           	
Ar	2.77795           	-1.19055           	-1.98425           	1.30293           	-0.099959           	-0.993226           	
Ar	1.98425           	-0.39685           	-1.98425           	-0.407739           	0.79121           	-1.29737           	
Ar	1.98425           	-1.19055           	-1.19055           	-0.845036           	-0.27027           	-0.681542           	
Ar	2.77795           	-0.39685           	-1.19055           	1.41139           	1.38605           	1.26831           	
Ar	2.77795           	-1.19055           	-0.39685           	0.383611           	0.868176           	-0.479514           	
Ar	1.98425           	-0.39685           	-0.39685           	0.553616           	0.562127           	-0.231754           	
Ar	1.98425           	-1.19055           	0.39685           	-1.05933           	-1.14869           	-0.626996           	
Ar	2.77795           	-0.39685           	0.39685           	-0.70826           	-0.356207           	0.166839           	
Ar	2.77795           	-1.19055           	1.19055           	0.449283           	1.27859           	-1.22033           	
Ar	1.98425           	-0.39685           	1.19055           	-1.47327           	1.04031           	0.981999           	
Ar	1.98425           	-1.19055           	1.98425           	-1.43533           	0.927486           	-0.571339           	
Ar	2.77795           	-0.39685           	1.98425           	-1.04199           	-0.896003           	-1.23351           	
Ar	2.77795           	-1.19055           	2.77795           	-0.95279           	-0.200012           	-0.000382503           	
Ar	1.98425           	-0.39685           	2.77795           	-0.247762           	-0.204373           	-0.0677159           	
Ar	1.98425           	0.39685           	-2.77795           	-0.549657           	-1.23651           	-0.65292           	
Ar	2.77795           	1.19055           	-2.77795           	0.357399           	0.858131           	1.4126           	
Ar	2.77795           	0.39685           	-1.98425           	-1.44456           	1.33983           	-1.18947           	
Ar	1.98425           	1.19055           	-1.98425           	-0.684988           	-0.784183           	-0.0422759           	
Ar	1.98425           	0.39685           	-1.19055           	0.868421           	1.20613           	-0.217069           	
Ar	2.77795           	1.19055           	-1.19055           	1.03466           	1.27388           	-0.630142           	
Ar	2.77795           	0.39685           	-0.39685           	0.446453           	1.37958           	-1.15604           	
Ar	1.98425           	1.19055           	-0.39685           	1.26168           	-1.07816           	-0.548643           	
Ar	1.98425           	0.39685           	0.39685           	1.41475           	-0.489924           	0.754742           	
Ar	2.77795           	1.19055           	0.39685           	-0.155844           	0.803341           	-0.90301           	
Ar	2.77795           	0.39685           	1.19055           	1.16301           	-1.16207           	-0.636125           	
Ar	1.98425           	1.19055           	1.19055           	-1.06012           	0.73636           	-1.23137           	
Ar	1.98425           	0.39685           	1.98425           	-1.21772           	0.832825           	-1.34493           	
Ar	2.77795           	1.19055           	1.98425           	-1.02062           	-1.26791           	-0.625713           	
Ar	2.77795           	0.39685           	2.77795           	0.323679           	1.14153           	-0.872966           	
Ar	1.98425           	1.19055           	2.77795           	-1.4636           	0.760445           	-1.05246           	
Ar	1.98425           	1.98425           	-2.77795           	-0.707169           	-0.208851           	-1.12626           	
Ar	2.77795           	2.77795           	-2.77795           	-0.476636           	-0.362917           	-0.701026           	
Ar	2.77795           	1.98425           	-1.98425           	0.361292           	-0.363922           	0.312448           	
Ar	1.98425           	2.77795           	-1.98425           	-0.454172           	1.02126           	-0.337591           	
Ar	1.98425           	1.98425           	-1.19055           	0.0293876           	0.768522           	0.00374029           	
Ar	2.77795           	2.77795           	-1.19055           	0.779833           	1.24943           	-0.71328           	
Ar	2.77795           	1.98425           	-0.39685           	0.935029           	-1.38404           	-1.33383           	
Ar	1.98425           	2.77795           	-0.39685           	0.976673           	-0.863625           	-1.09835           	
Ar	1.98425           	1.98425           	0.39685           	-1.21925           	1.00108           	1.54658           	
Ar	2.77795           	2.77795           	0.39685           	-0.705642           	1.07851           	0.853646           	
Ar	2.77795           	1.98425           	1.19055           	-0.371533           	-1.04441           	-0.808585           	
Ar	1.98425           	2.77795           	1.19055           	-0.111225           	0.0199824           	0.331895           	
Ar	1.98425           	1.98425           	1.98425           	0.574319           	-1.03448           	1.47137           	
Ar	2.77795           	2.77795           	1.98425           	-0.68344           	0.0523789           	1.03925           	
Ar	2.77795           	1.98425           	2.77795           	0.36554           	-1.33398           	0.354394           	
Ar	1.98425           	2.77795           	2.77795           	-1.20093           	0.986876           	0.150446           	
