256
6.3496
Ar	-2.77795           	-2.77795           	-2.77795           	-1.01884           	-0.189033           	-0.822355           	
Ar	-1.98425           	-1.98425           	-2.77795           	0.740316           	0.223305           	0.134995           	
Ar	-1.98425           	-2.77795           	-1.98425           	0.0621222           	-0.89808           	0.770617           	
Ar	-2.77795           	-1.98425           	-1.98425           	-0.37122           	-1.33314           	0.643313           	
Ar	-2.77795           	-2.77795           	-1.19055           	-0.457515           	1.0997           	-0.701286           	
Ar	-1.98425           	-1.98425           	-1.19055           	1.2148           	-0.222901           	1.31492           	
Ar	-1.98425           	-2.77795           	-0.39685           	1.62247           	-0.477024           	-0.435854           	
Ar	-2.77795           	-1.98425           	-0.39685           	0.0192211           	-1.43937           	0.417608           	
Ar	-2.77795           	-2.77795           	0.39685           	0.157569           	0.500736           	-0.0382675           	
Ar	-1.98425           	-1.98425           	0.39685           	-1.20662           	0.158398           	1.19014           	
Ar	-1.98425           	-2.77795           	1.19055           	1.17572           	0.594502           	-0.571023           	
Ar	-2.77795           	-1.98425           	1.19055           	-1.14285           	-0.298644           	1.16856           	
Ar	-2.77795           	-2.77795           	1.98425           	0.584337           	1.21842           	-1.30164           	
Ar	-1.98425           	-1.98425           	1.98425           	-0.141259           	-0.786258           	-1.11851           	
Ar	-1.98425           	-2.77795           	2.77795           	-0.99416           	0.211173           	-1.59094           	
Ar	-2.77795           	-1.98425           	2.77795           	-0.103253           	-0.207486           	-0.297562           	
Ar	-2.77795           	-1.19055           	-2.77795           	-0.284545           	-0.218475           	0.741694           	
Ar	-1.98425           	-0.39685           	-2.77795           	0.871796           	1.25569           	0.818601           	
Ar	-1.98425           	-1.19055           	-1.98425           	-0.20681           	-0.2202           	-0.25279           	
Ar	-2.77795           	-0.39685           	-1.98425           	1.34712           	0.0281244           	1.42189           	
Ar	-2.77795           	-1.19055           	-1.19055           	1.04104           	-0.42962           	0.444262           	
Ar	-1.98425           	-0.39685           	-1.19055           	-1.0262           	-0.117525           	-1.42651           	
Ar	-1.98425           	-1.19055           	-0.39685           	-1.35385           	-1.16665           	1.3082           	
Ar	-2.77795           	-0.39685           	-0.39685           	-1.0633           	0.147037           	-1.05019           	
Ar	-2.77795           	-1.19055           	0.39685           	-0.589613           	0.607823           	0.677263           	
Ar	-1.98425           	-0.39685           	0.39685           	-0.58836           	-1.12889           	-1.10235           	
Ar	-1.98425           	-1.19055           	1.19055           	0.706271           	0.0415103           	0.195455           	
Ar	-2.77795           	-0.39685           	1.19055           	-0.0482483           	-0.720155           	-0.120981           	
Ar	-2.77795           	-1.19055           	1.98425           	-0.725861           	0.527981           	1.1751           	
Ar	-1.98425           	-0.39685           	1.98425           	0.613543           	0.241635           	-0.368904           	
Ar	-1.98425           	-1.19055           	2.77795           	0.539217           	-0.350786           	0.717756           	
Ar	-2.77795           	-0.39685           	2.77795           	-0.512734           	0.0779648           	-0.971897           	
Ar	-2.77795           	0.39685           	-2.77795           	-0.34705           	0.179064           	-0.622266           	
Ar	-1.98425           	1.19055           	-2.77795           	-0.535068           	0.570713           	1.04105           	
Ar	-1.98425           	0.39685           	-1.98425           	0.00693519           	1.43605           	0.0767465           	
Ar	-2.77795           	1.19055           	-1.98425           	-0.812015           	-0.785776           	0.464135           	
Ar	-2.77795           	0.39685           	-1.19055           	-0.322171           	1.37544           	-1.06648           	
Ar	-1.98425           	1.19055           	-1.19055           	1.46548           	-0.306268           	-0.270357           	
Ar	-1.98425           	0.39685           	-0.39685           	-0.151717           	0.422817           	-1.3145           	
Ar	-2.77795           	1.19055           	-0.39685           	-0.472831           	-0.597102           	0.443412           	
Ar	-2.77795           	0.39685           	0.39685           	0.750459           	1.39706           	-1.4795           	
Ar	-1.98425           	1.19055           	0.39685           	-0.0279987           	-0.749135           	0.114743           	
Ar	-1.98425           	0.39685           	1.19055           	0.592299           	0.358761           	-1.27832           	
Ar	-2.77795           	1.19055           	1.19055           	1.56223           	1.27864           	0.808673           	
Ar	-2.77795           	0.39685           	1.98425           	1.10706           	-0.347887           	0.672592           	
Ar	-1.98425           	1.19055           	1.98425           	-0.312403           	0.295044           	1.4031           	
Ar	-1.98425           	0.39685           	2.77795           	-1.34448           	1.42782           	1.20641           	
Ar	-2.77795           	1.19055           	2.77795           	-0.81877           	1.25983           	-0.671986           	
Ar	-2.77795           	1.98425           	-2.77795           	0.503067           	-0.525344           	1.26711           	
Ar	-1.98425           	2.77795           	-2.77795           	0.780757           	0.456771           	-0.902119           	
Ar	-1.98425           	1.98425           	-1.98425           	-0.272045           	-0.426232           	-1.07719           	
Ar	-2.77795           	2.77795           	-1.98425           	-0.159352           	1.00072           	-0.31004           	
Ar	-2.77795           	1.98425           	-1.19055           	1.54759           	-0.0404471           	-1.52341           	
Ar	-1.98425           	2.77795           	-1.19055           	-1.22695           	-0.111682           	1.27151           	
Ar	-1.98425           	1.98425           	-0.39685           	1.17392           	-0.63808           	-0.648502           	
Ar	-2.77795           	2.77795           	-0.39685           	0.350297           	0.504463           	1.16282           	
Ar	-2.77795           	1.98425           	0.39685           	0.257179           	0.614928           	1.01851           	
Ar	-1.98425           	2.77795           	0.39685           	-0.0326251           	1.2511           	0.70622           	
Ar	-1.98425           	1.98425           	1.19055           	0.887583           	0.12071           	-1.39125           	
Ar	-2.77795           	2.77795           	1.19055           	0.658481           	-0.731994           	0.5818           	
Ar	-2.77795           	1.98425           	1.98425           	1.34856           	0.450907           	-1.41656           	
Ar	-1.98425           	2.77795           	1.98425           	-1.22484           	-1.34191           	1.10044           	
Ar	-1.98425           	1.98425           	2.77795           	0.0573108           	-1.42778           	-0.512138           	
Ar	-2.77795           	2.77795           	2.77795           	0.126099           	-1.19978           	0.89246           	
Ar	-1.19055           	-2.77795           	-2.77795           	-0.098602           	1.42908           	-1.31775           	
Ar	-0.39685           	-1.98425           	-2.77795           	0.84509           	0.145915           	0.702996           	
Ar	-0.39685           	-2.77795           	-1.98425           	0.511699           	-1.23037           	-0.254204           	
Ar	-1.19055           	-1.98425           	-1.98425           	0.0339982           	0.191953           	-0.575227           	
Ar	-1.19055           	-2.77795           	-1.19055           	-0.755996           	-0.553925           	1.06176           	
Ar	-0.39685           	-1.98425           	-1.19055           	-0.555053           	1.5595           	-1.24236           	
Ar	-0.39685           	-2.77795           	-0.39685           	1.61894           	1.2746           	0.724829           	
Ar	-1.19055           	-1.98425           	-0.39685           	-1.29383           	1.5047           	0.899203           	
Ar	-1.19055           	-2.77795           	0.39685           	1.3988           	-0.0714513           	0.987701           	
Ar	-0.39685           	-1.98425           	0.39685           	-0.609553           	1.50959           	1.3042           	
Ar	-0.39685           	-2.77795           	1.19055           	-1.21331           	-0.22247           	1.16115           	
Ar	-1.19055           	-1.98425           	1.19055           	-0.93886           	-1.01084           	-0.265063           	
Ar	-1.19055           	-2.77795           	1.98425           	1.35633           	0.955804           	0.0208494           	
Ar	-0.39685           	-1.98425           	1.98425           	-0.394087           	-0.64366           	-1.35932           	
Ar	-0.39685           	-2.77795           	2.77795           	0.62288           	0.0552908           	-0.39697           	
Ar	-1.19055           	-1.98425           	2.77795           	0.188429           	0.955184           	-0.409595           	
Ar	-1.19055           	-1.19055           	-2.77795           	0.538265           	0.940663           	-0.707127           	
Ar	-0.39685           	-0.39685           	-2.77795           	-0.23312           	1.10178           	-0.774555           	
Ar	-0.39685           	-1.19055           	-1.98425           	-0.830131           	0.867115           	0.670274           	
Ar	-1.19055           	-0.39685           	-1.98425           	-1.33864           	-1.3759           	0.60774           	
Ar	-1.19055           	-1.19055           	-1.19055           	1.55775           	-1.13426           	-1.18686           	
Ar	-0.39685           	-0.39685           	-1.19055           	1.22268           	-0.618173           	-0.681419           	
Ar	-0.39685           	-1.19055           	-0.39685           	-0.538595           	-0.895304           	-1.29774           	
Ar	-1.19055           	-0.39685           	-0.39685           	1.07445           	0.165555           	-0.425122           	
Ar	-1.19055           	-1.19055           	0.39685           	1.30732           	-0.845027           	1.14645           	
Ar	-0.39685           	-0.39685           	0.39685           	-0.585865           	0.798349           	0.529505           	
Ar	-0.39685           	-1.19055           	1.19055           	0.596733           	-0.296848           	-0.101959           	
Ar	-1.19055           	-0.39685           	1.19055           	1.4818           	0.924978           	-0.572309           	
Ar	-1.19055           	-1.19055           	1.98425           	-0.788968           	1.54979           	-1.27732           	
Ar	-0.39685           	-0.39685           	1.98425           	1.4735           	-1.42231           	-1.13694           	
Ar	-0.39685           	-1.19055           	2.77795           	0.585027           	-1.49803           	-0.75492           	
Ar	-1.19055           	-0.39685           	2.77795           	0.990363           	1.1796           	0.143187           	
Ar	-1.19055           	0.39685           	-2.77795           	-1.18727           	-0.992455           	0.764163           	
Ar	-0.39685           	1.19055           	-2.77795           	-0.892818           	1.53694           	-0.642409           	
Ar	-0.39685           	0.39685           	-1.98425           	0.274254           	1.2108           	0.0288445           	
Ar	-1.19055           	1.19055           	-1.98425           	-0.0755114           	-1.00853           	-0.744934           	
Ar	-1.19055           	0.39685           	-1.19055           	-1.04222           	1.04315           	0.474497           	
Ar	-0.39685           	1.19055           	-1.19055           	0.448015           	0.891487           	-0.172652           	
Ar	-0.39685           	0.39685           	-0.39685           	1.4679           	1.55747           	-0.194986           	
Ar	-1.19055           	1.19055           	-0.39685           	-1.30563           	1.3975           	-0.101018           	
Ar	-1.19055           	0.39685           	0.39685           	-0.85038           	0.349069           	-0.0827646           	
Ar	-0.39685           	1.19055           	0.39685           	-0.0131063           	-0.294029           	-0.475291           	
Ar	-0.39685           	0.39685           	1.19055           	-1.36613           	-0.0263525           	0.0485346           	
Ar	-1.19055           	1.19055           	1.19055           	0.990224           	0.535775           	0.0133467           	
Ar	-1.19055           	0.39685           	1.98425           	-1.1484           	-0.823433           	-0.347985           	
Ar	-0.39685           	1.19055           	1.98425           	0.47264           	0.556002           	0.159764           	
Ar	-0.39685           	0.39685           	2.77795           	1.3199           	0.968729           	-0.369215           	
Ar	-1.19055           	1.19055           	2.77795           	0.298183           	-0.216718           	-1.04986           	
Ar	-1.19055           	1.98425           	-2.77795           	-1.37068           	-0.382278           	-1.06452           	
Ar	-0.39685           	2.77795           	-2.77795           	0.0265247           	-0.232966           	-1.23914           	
Ar	-0.39685           	1.98425           	-1.98425           	1.5177           	0.3716           	0.626209           	
Ar	-1.19055           	2.77795           	-1.98425           	-0.0612777           	-1.27497           	-1.23995           	
Ar	-1.19055           	1.98425           	-1.19055           	1.05563           	-1.18616           	0.24998           	
Ar	-0.39685           	2.77795           	-1.19055           	-0.392054           	1.25902           	-0.786372           	
Ar	-0.39685           	1.98425           	-0.39685           	1.21349           	1.56556           	-0.0935239           	
Ar	-1.19055           	2.77795           	-0.39685           	-0.630712           	0.404742           	-1.10965           	
Ar	-1.19055           	1.98425           	0.39685           	1.12125           	0.0911799           	1.37536           	
Ar	-0.39685           	2.77795           	0.39685           	-0.744182           	-1.2441           	-0.413486           	
Ar	-0.39685           	1.98425           	1.19055           	-0.201844           	-1.15984           	0.720516           	
Ar	-1.19055           	2.77795           	1.19055           	0.325833           	0.321636           	-1.08458           	
Ar	-1.19055           	1.98425           	1.98425           	0.678887           	0.205875           	0.803302           	
Ar	-0.39685           	2.77795           	1.98425           	-0.191118           	-1.48886           	1.04461           	
Ar	-0.39685           	1.98425           	2.77795           	0.161129           	1.02171           	1.37474           	
Ar	-1.19055           	2.77795           	2.77795           	-1.0851           	-1.00381           	1.06163           	
Ar	0.39685           	-2.77795           	-2.77795           	-0.279282           	-1.42378           	1.05506           	
Ar	1.19055           	-1.98425           	-2.77795           	1.21939           	-0.599547           	-0.112322           	
Ar	1.19055           	-2.77795           	-1.98425           	-1.38647           	-1.11176           	1.49514           	
Ar	0.39685           	-1.98425           	-1.98425           	1.58108           	-0.400999           	-1.32109           	
Ar	0.39685           	-2.77795           	-1.19055           	-0.32862           	0.852104           	-0.964643           	
Ar	1.19055           	-1.98425           	-1.19055           	-1.10432           	-0.455525           	0.873273           	
Ar	1.19055           	-2.77795           	-0.39685           	-0.596701           	-1.4101           	-0.492979           	
Ar	0.39685           	-1.98425           	-0.39685           	-1.28961           	-0.146271           	-0.465563           	
Ar	0.39685           	-2.77795           	0.39685           	1.3472           	1.4698           	-1.01598           	
Ar	1.19055           	-1.98425           	0.39685           	1.22572           	-1.24876           	-0.50351           	
Ar	1.19055           	-2.77795           	1.19055           	0.791136           	-0.0730981           	-0.411012           	
Ar	0.39685           	-1.98425           	1.19055           	0.349985           	-0.487171           	0.505721           	
Ar	0.39685           	-2.77795           	1.98425           	-1.25855           	-0.4187           	0.910239           	
Ar	1.19055           	-1.98425           	1.98425           	-1.25963           	-0.471083           	-1.06289           	
Ar	1.19055           	-2.77795           	2.77795           	-0.98852           	0.655243           	1.3055           	
Ar	0.39685           	-1.98425           	2.77795           	-0.360969           	1.00587           	-0.722156           	
Ar	0.39685           	-1.19055           	-2.77795           	-0.983909           	-1.22429           	-0.615975           	
Ar	1.19055           	-0.39685           	-2.77795           	0.115306           	-1.05896           	0.754034           	
Ar	1.19055           	-1.19055           	-1.98425           	1.24194           	-1.34522           	0.65171           	
Ar	0.39685           	-0.39685           	-1.98425           	-1.27026           	1.33544           	0.919228           	
Ar	0.39685           	-1.19055           	-1.19055           	-0.181576           	0.493118           	-0.725998           	
Ar	1.19055           	-0.39685           	-1.19055           	0.999606           	-0.790358           	0.303111           	
Ar	1.19055           	-1.19055           	-0.39685           	0.00911271           	-0.593963           	1.40069           	
Ar	0.39685           	-0.39685           	-0.39685           	-0.576862           	-0.398643           	-0.642519           	
Ar	0.39685           	-1.19055           	0.39685           	-0.0475557           	0.0677833           	-1.5594           	
Ar	1.19055           	-0.39685           	0.39685           	-0.238273           	1.16176           	0.962747           	
Ar	1.19055           	-1.19055           	1.19055           	0.631766           	-1.45561           	1.25474           	
Ar	0.39685           	-0.39685           	1.19055           	1.60798           	0.114642           	-1.37635           	
Ar	0.39685           	-1.19055           	1.98425           	0.865804           	-0.276883           	-1.20529           	
Ar	1.19055           	-0.39685           	1.98425           	0.0213           	-0.0921964           	-1.44198           	
Ar	1.19055           	-1.19055           	2.77795           	-0.555686           	1.18117           	0.567421           	
Ar	0.39685           	-0.39685           	2.77795           	0.31051           	0.547318           	1.29334           	
Ar	0.39685           	0.39685           	-2.77795           	-0.882593           	-1.07703           	-0.872747           	
Ar	1.19055           	1.19055           	-2.77795           	-0.978116           	-0.198948           	0.24489           	
Ar	1.19055           	0.39685           	-1.98425           	-0.0284418           	1.20844           	-1.25945           	
Ar	0.39685           	1.19055           	-1.98425           	0.00434817           	-0.663291           	1.41859           	
Ar	0.39685           	0.39685           	-1.19055           	-0.529118           	1.42342           	1.47926           	
Ar	1.19055           	1.19055           	-1.19055           	-0.770596           	1.39794           	0.0217717           	
Ar	1.19055           	0.39685           	-0.39685           	-0.554752           	0.630286           	1.26117           	
Ar	0.39685           	1.19055           	-0.39685           	-0.167851           	-0.981876           	-0.403155           	
Ar	0.39685           	0.39685           	0.39685           	-0.0176341           	-0.082616           	-0.794109           	
Ar	1.19055           	1.19055           	0.39685           	-0.946427           	-1.40557           	1.26949           	
Ar	1.19055           	0.39685           	1.19055           	-1.1493           	-0.833215           	-1.37967           	
Ar	0.39685           	1.19055           	1.19055           	-0.429851           	-0.356385           	-0.0623371           	
Ar	0.39685           	0.39685           	1.98425           	1.40723           	1.07012           	-0.426022           	
Ar	1.19055           	1.19055           	1.98425           	-1.34844           	-0.558995           	0.426967           	
Ar	1.19055           	0.39685           	2.77795           	-1.42606           	0.366834           	0.27826           	
Ar	0.39685           	1.19055           	2.77795           	-1.44302           	1.05118           	0.104076           	
Ar	0.39685           	1.98425           	-2.77795           	0.170947           	-1.13703           	-0.837766           	
Ar	1.19055           	2.77795           	-2.77795           	-0.0640974           	0.150066           	-0.303362           	
Ar	1.19055           	1.98425           	-1.98425           	1.12494           	-1.50103           	1.1303           	
Ar	0.39685           	2.77795           	-1.98425           	-1.16538           	-0.992511           	1.24101           	
Ar	0.39685           	1.98425           	-1.19055           	-1.39211           	-0.686862           	-1.16433           	
Ar	1.19055           	2.77795           	-1.19055           	-1.17958           	0.338233           	-0.00443346           	
Ar	1.19055           	1.98425           	-0.39685           	0.350276           	0.112004           	-0.506442           	
Ar	0.39685           	2.77795           	-0.39685           	1.51645           	0.218515           	0.450844           	
Ar	0.39685           	1.98425           	0.39685           	0.447202           	0.247399           	-0.75445           	
Ar	1.19055           	2.77795           	0.39685           	-0.770752           	0.259326           	-1.27539           	
Ar	1.19055           	1.98425           	1.19055           	0.925518           	-1.20319           	-0.896143           	
Ar	0.39685           	2.77795           	1.19055           	-1.40846           	0.187661           	0.770203           	
Ar	0.39685           	1.98425           	1.98425           	-0.119631           	-0.320859           	0.785453           	
Ar	1.19055           	2.77795           	1.98425           	-0.485542           	-0.0312933           	1.30922           	
Ar	1.19055           	1.98425           	2.77795           	-0.740741           	0.0315479           	-0.949767           	
Ar	0.39685           	2.77795           	2.77795           	-0.312876           	0.306913           	0.904746           	
Ar	1.98425           	-2.77795           	-2.77795           	1.27489           	-0.976272           	-0.555378           	
Ar	2.77795           	-1.98425           	-2.77795           	-0.727771           	-1.09329           	1.17942           	
Ar	2.77795           	-2.77795           	-1.98425           	1.31527           	0.808863           	-0.145311           	
Ar	1.98425           	-1.98425           	-1.98425           	-0.935397           	1.49306           	-1.45811           	
Ar	1.98425           	-2.77795           	-1.19055           	-0.618597           	0.785113           	-1.14502           	
Ar	2.77795           	-1.98425           	-1.19055           	0.0774533           	0.831597           	0.558921           	
Ar	2.77795           	-2.77795           	-0.39685           	-0.648558           	-0.921495           	-1.33407           	
Ar	1.98425           	-1.98425           	-0.39685           	-1.35932           	0.047909           	0.150921           	
Ar	1.98425           	-2.77795           	0.39685           	1.5421           	0.762114           	-1.38966           	
Ar	2.77795           	-1.98425           	0.39685           	-0.903882           	-1.18422           	0.433535           	
Ar	2.77795           	-2.77795           	1.19055           	1.59306           	1.54561           	0.973543           	
Ar	1.98425           	-1.98425           	1.19055           	-0.458534           	-0.815624           	1.39654           	
Ar	1.98425           	-2.77795           	1.98425           	-0.77533           	-1.13382           	0.633274           	
Ar	2.77795           	-1.98425           	1.98425           	0.671553           	-0.61427           	0.554203           	
Ar	2.77795           	-2.77795           	2.77795           	0.805635           	0.222078           	-0.232811           	
Ar	1.98425           	-1.98425           	2.77795           	1.25281           	-1.33393           	-0.973341           	
Ar	1.98425           	-1.19055           	-2.77795           	0.315516           	-0.527541           	-0.378556           	
Ar	2.77795           	-0.39685           	-2.77795           	0.573645           	-0.431914           	1.18563           	
Ar	2.77795           	-1.19055           	-1.98425           	-0.771648           	-0.523277           	0.375619           	
Ar	1.98425           	-0.39685           	-1.98425           	-0.569112           	0.0277869           	0.707676           	
Ar	1.98425           	-1.19055           	-1.19055           	1.45662           	-0.0126171           	0.681157           	
Ar	2.77795           	-0.39685           	-1.19055           	0.933946           	0.983795           	1.38181           	
Ar	2.77795           	-1.19055           	-0.39685           	0.834271           	-1.425           	-1.32413           	
Ar	1.98425           	-0.39685           	-0.39685           	-0.0286694           	0.701503           	-0.422124           	
Ar	1.98425           	-1.19055           	0.39685           	-0.97068           	-0.126323           	1.31623           	
Ar	2.77795           	-0.39685           	0.39685           	0.388703           	-0.506975           	-1.58982           	
Ar	2.77795           	-1.19055           	1.19055           	1.00756           	1.26349           	-0.601084           	
Ar	1.98425           	-0.39685           	1.19055           	-0.867214           	0.203671           	0.483282           	
Ar	1.98425           	-1.19055           	1.98425           	-1.17779           	0.886969           	1.47629           	
Ar	2.77795           	-0.39685           	1.98425           	0.790018           	-1.31561           	-0.0680552           	
Ar	2.77795           	-1.19055           	2.77795           	0.00148082           	-1.49245           	1.43561           	
Ar	1.98425           	-0.39685           	2.77795           	-0.813576           	0.896442           	0.847276           	
Ar	1.98425           	0.39685           	-2.77795           	-0.927977           	0.0972516           	0.93856           	
Ar	2.77795           	1.19055           	-2.77795           	-0.659918           	1.52353           	0.067936           	
Ar	2.77795           	0.39685           	-1.98425           	0.510152           	-1.08061           	1.45789           	
Ar	1.98425           	1.19055           	-1.98425           	0.330173           	0.763037           	-0.621209           	
Ar	1.98425           	0.39685           	-1.19055           	0.332544           	0.137131           	-0.929849           	
Ar	2.77795           	1.19055           	-1.19055           	1.32365           	0.724863           	0.790102           	
Ar	2.77795           	0.39685           	-0.39685           	0.310722           	1.00201           	0.104943           	
Ar	1.98425           	1.19055           	-0.39685           	0.290794           	0.158571           	0.305619           	
Ar	1.98425           	0.39685           	0.39685           	-1.27348           	-1.47341           	0.329449           	
Ar	2.77795           	1.19055           	0.39685           	-1.33408           	-0.83204           	-0.346236           	
Ar	2.77795           	0.39685           	1.19055           	1.10539           	-0.305071           	1.2673           	
Ar	1.98425           	1.19055           	1.19055           	0.547735           	0.489958           	1.2187           	
Ar	1.98425           	0.39685           	1.98425           	-0.880543           	-0.633352           	-1.43404           	
Ar	2.77795           	1.19055           	1.98425           	-0.918863           	1.15177           	0.845273           	
Ar	2.77795           	0.39685           	2.77795           	0.052122           	-0.149151           	-0.589724           	
Ar	1.98425           	1.19055           	2.77795           	0.714467           	-0.458959           	-1.43699           	
Ar	1.98425           	1.98425           	-2.77795           	0.00835541           	1.30671           	1.08131           	
Ar	2.77795           	2.77795           	-2.77795           	-1.38291           	-0.0359588           	-0.33225           	
Ar	2.77795           	1.98425           	-1.98425           	0.514898           	0.145512           	-0.289379           	
Ar	1.98425           	2.77795           	-1.98425           	-0.651867           	0.266377           	0.394861           	
Ar	1.98425           	1.98425           	-1.19055           	0.594091           	-0.261696           	-1.48234           	
Ar	2.77795           	2.77795           	-1.19055           	0.365173           	-1.34742           	0.5239           	
Ar	2.77795           	1.98425           	-0.39685           	0.0876562           	-0.773019           	1.40683           	
Ar	1.98425           	2.77795           	-0.39685           	0.245806           	-0.236936           	0.986469           	
Ar	1.98425           	1.98425           	0.39685           	-0.405134           	1.27013           	-0.73481           	
Ar	2.77795           	2.77795           	0.39685           	0.597336           	0.351138           	0.322512           	
Ar	2.77795           	1.98425           	1.19055           	0.752542           	-1.27397           	0.0570935           	
Ar	1.98425           	2.77795           	1.19055           	0.337635           	-1.20194           	-1.55099           	
Ar	1.98425           	1.98425           	1.98425           	1.59758           	0.767907           	0.110799           	
Ar	2.77795           	2.77795           	1.98425           	-0.188014           	1.57099           	-1.19495           	
Ar	2.77795           	1.98425           	2.77795           	-1.28937           	0.531616           	0.0596333           	
Ar	1.98425           	2.77795           	2.77795           	-1.17951           	-0.736672           	0.228491           	
