256
6.3496
Ar	-2.77795           	-2.77795           	-2.77795           	-0.499379           	0.567623           	0.139776           	
Ar	-1.98425           	-1.98425           	-2.77795           	-0.446945           	0.131061           	0.775883           	
Ar	-1.98425           	-2.77795           	-1.98425           	-0.160377           	0.450998           	0.326175           	
Ar	-2.77795           	-1.98425           	-1.98425           	-0.183867           	1.2816           	-0.0465476           	
Ar	-2.77795           	-2.77795           	-1.19055           	-0.896324           	-0.495447           	0.409812           	
Ar	-1.98425           	-1.98425           	-1.19055           	-0.321649           	0.926165           	-1.01538           	
Ar	-1.98425           	-2.77795           	-0.39685           	1.38697           	0.0895538           	-0.54914           	
Ar	-2.77795           	-1.98425           	-0.39685           	1.2887           	0.942229           	0.997725           	
Ar	-2.77795           	-2.77795           	0.39685           	0.760791           	-0.101966           	1.16617           	
Ar	-1.98425           	-1.98425           	0.39685           	-0.448057           	0.236186           	0.702336           	
Ar	-1.98425           	-2.77795           	1.19055           	1.08016           	1.24377           	-0.239462           	
Ar	-2.77795           	-1.98425           	1.19055           	-0.212796           	-0.63605           	1.32202           	
Ar	-2.77795           	-2.77795           	1.98425           	-0.869641           	0.710539           	0.263595           	
Ar	-1.98425           	-1.98425           	1.98425           	0.963648           	-0.906205           	0.0357716           	
Ar	-1.98425           	-2.77795           	2.77795           	-0.515628           	-0.295564           	0.970744           	
Ar	-2.77795           	-1.98425           	2.77795           	1.4013           	0.889752           	0.387487           	
Ar	-2.77795           	-1.19055           	-2.77795           	-1.04681           	0.84385           	-1.03238           	
Ar	-1.98425           	-0.39685           	-2.77795           	-0.0888322           	0.699678           	1.34027           	
Ar	-1.98425           	-1.19055           	-1.98425           	-0.523835           	0.0275926           	-0.27112           	
Ar	-2.77795           	-0.39685           	-1.98425           	-0.790395           	1.0865           	1.39549           	
Ar	-2.77795           	-1.19055           	-1.19055           	1.41906           	0.733779           	1.12984           	
Ar	-1.98425           	-0.39685           	-1.19055           	-0.253135           	-0.911894           	-1.01563           	
Ar	-1.98425           	-1.19055           	-0.39685           	-0.363844           	-0.27457           	1.12532           	
Ar	-2.77795           	-0.39685           	-0.39685           	1.40686           	-0.743798           	-1.2903           	
Ar	-2.77795           	-1.19055           	0.39685           	0.00990814           	0.247539           	-0.155448           	
Ar	-1.98425           	-0.39685           	0.39685           	-0.452076           	0.21596           	-0.775117           	
Ar	-1.98425           	-1.19055           	1.19055           	-1.49732           	0.676119           	-1.44069           	
Ar	-2.77795           	-0.39685           	1.19055           	-1.02258           	-0.84559           	0.689409           	
Ar	-2.77795           	-1.19055           	1.98425           	-1.11504           	0.13754           	-0.79242           	
Ar	-1.98425           	-0.39685           	1.98425           	0.120951           	0.85411           	-1.21534           	
Ar	-1.98425           	-1.19055           	2.77795           	0.0837087           	0.840289           	0.948857           	
Ar	-2.77795           	-0.39685           	2.77795           	-0.219183           	-0.845722           	-1.47246           	
Ar	-2.77795           	0.39685           	-2.77795           	0.272296           	0.297399           	-0.316608           	
Ar	-1.98425           	1.19055           	-2.77795           	-0.0351079           	0.271386           	0.370013           	
Ar	-1.98425           	0.39685           	-1.98425           	0.181702           	-1.15158           	-0.89187           	
Ar	-2.77795           	1.19055           	-1.98425           	-1.40647           	-0.096693           	0.75451           	
Ar	-2.77795           	0.39685           	-1.19055           	-0.674476           	-0.0870446           	-0.0787931           	
Ar	-1.98425           	1.19055           	-1.19055           	-0.608051           	0.397337           	0.506037           	
Ar	-1.98425           	0.39685           	-0.39685           	-1.35137           	0.789258           	-0.865845           	
Ar	-2.77795           	1.19055           	-0.39685           	-0.636676           	-0.522668           	1.41869           	
Ar	-2.77795           	0.39685           	0.39685           	-0.344904           	1.06801           	0.749553           	
Ar	-1.98425           	1.19055           	0.39685           	-0.828775           	-0.584054           	1.33425           	
Ar	-1.98425           	0.39685           	1.19055           	-0.79412           	1.19521           	0.122227           	
Ar	-2.77795           	1.19055           	1.19055           	0.396386           	-0.272777           	-1.11581           	
Ar	-2.77795           	0.39685           	1.98425           	-0.666329           	1.41589           	-0.836971           	
Ar	-1.98425           	1.19055           	1.98425           	-0.0510854           	-1.42346           	0.496756           	
Ar	-1.98425           	0.39685           	2.77795           	-0.729304           	-0.59097           	-1.09971           	
Ar	-2.77795           	1.19055           	2.77795           	0.699017           	0.307944           	0.728046           	
Ar	-2.77795           	1.98425           	-2.77795           	-0.227674           	0.46354           	0.0078828           	
Ar	-1.98425           	2.77795           	-2.77795           	0.413596           	1.33383           	0.915635           	
Ar	-1.98425           	1.98425           	-1.98425           	0.399553           	-0.443952           	0.474219           	
Ar	-2.77795           	2.77795           	-1.98425           	-0.283621           	0.234239           	1.32059           	
Ar	-2.77795           	1.98425           	-1.19055           	-0.382099           	0.947084           	1.00637           	
Ar	-1.98425           	2.77795           	-1.19055           	1.24724           	-0.0894067           	-0.775828           	
Ar	-1.98425           	1.98425           	-0.39685           	-1.30129           	0.751229           	-0.869359           	
Ar	-2.77795           	2.77795           	-0.39685           	-0.63115           	-0.732733           	-0.862398           	
Ar	-2.77795           	1.98425           	0.39685           	1.37272           	0.0449286           	-0.0229485           	
Ar	-1.98425           	2.77795           	0.39685           	-1.15972           	-0.688931           	-1.22443           	
Ar	-1.98425           	1.98425           	1.19055           	1.07544           	0.590361           	0.669533           	
Ar	-2.77795           	2.77795           	1.19055           	-0.349403           	-0.428921           	0.493941           	
Ar	-2.77795           	1.98425           	1.98425           	-0.866496           	1.4776           	-1.45943           	
Ar	-1.98425           	2.77795           	1.98425           	1.11484           	-0.2389           	0.205226           	
Ar	-1.98425           	1.98425           	2.77795           	1.00269           	0.885966           	-0.357112           	
Ar	-2.77795           	2.77795           	2.77795           	0.576337           	0.700332           	0.983901           	
Ar	-1.19055           	-2.77795           	-2.77795           	1.30762           	0.906004           	0.225708           	
Ar	-0.39685           	-1.98425           	-2.77795           	-0.994464           	-1.15802           	0.923395           	
Ar	-0.39685           	-2.77795           	-1.98425           	-0.349748           	-1.21818           	-0.541098           	
Ar	-1.19055           	-1.98425           	-1.98425           	1.13442           	-0.870933           	0.200391           	
Ar	-1.19055           	-2.77795           	-1.19055           	1.4171           	-1.22837           	-0.71867           	
Ar	-0.39685           	-1.98425           	-1.19055           	0.65391           	-0.0708057           	0.282829           	
Ar	-0.39685           	-2.77795           	-0.39685           	-0.284877           	0.569663           	0.251005           	
Ar	-1.19055           	-1.98425           	-0.39685           	-0.237196           	0.251623           	-1.49732           	
Ar	-1.19055           	-2.77795           	0.39685           	-1.4647           	-0.17856           	0.819068           	
Ar	-0.39685           	-1.98425           	0.39685           	-0.314696           	-1.0351           	0.0099782           	
Ar	-0.39685           	-2.77795           	1.19055           	-0.763523           	-1.16035           	-0.59344           	
Ar	-1.19055           	-1.98425           	1.19055           	0.969299           	-0.647852           	-0.321043           	
Ar	-1.19055           	-2.77795           	1.98425           	0.459966           	0.509365           	-0.108803           	
Ar	-0.39685           	-1.98425           	1.98425           	1.42598           	0.210905           	0.450683           	
Ar	-0.39685           	-2.77795           	2.77795           	0.193645           	0.195133           	0.652736           	
Ar	-1.19055           	-1.98425           	2.77795           	0.982089           	-0.583833           	-0.927492           	
Ar	-1.19055           	-1.19055           	-2.77795           	-0.16781           	0.638255           	1.07259           	
Ar	-0.39685           	-0.39685           	-2.77795           	-1.34953           	-1.03182           	-0.185208           	
Ar	-0.39685           	-1.19055           	-1.98425           	-1.33974           	-0.989551           	1.06665           	
Ar	-1.19055           	-0.39685           	-1.98425           	0.986445           	0.202718           	-1.47787           	
Ar	-1.19055           	-1.19055           	-1.19055           	-0.436305           	0.94616           	-1.2078           	
Ar	-0.39685           	-0.39685           	-1.19055           	0.477369           	0.482582           	-0.425233           	
Ar	-0.39685           	-1.19055           	-0.39685           	-1.2764           	-0.490328           	-1.42529           	
Ar	-1.19055           	-0.39685           	-0.39685           	0.121908           	-0.497223           	0.216035           	
Ar	-1.19055           	-1.19055           	0.39685           	-0.860136           	1.20339           	-1.09825           	
Ar	-0.39685           	-0.39685           	0.39685           	1.29971           	0.7526           	-0.251667           	
Ar	-0.39685           	-1.19055           	1.19055           	-1.06051           	-0.848087           	-1.12283           	
Ar	-1.19055           	-0.39685           	1.19055           	-1.42064           	-0.690655           	-0.724232           	
Ar	-1.19055           	-1.19055           	1.98425           	-0.0987369           	-0.523427           	-0.283362           	
Ar	-0.39685           	-0.39685           	1.98425           	-0.464812           	-0.969859           	1.34978           	
Ar	-0.39685           	-1.19055           	2.77795           	-0.435567           	0.100801           	0.786513           	
Ar	-1.19055           	-0.39685           	2.77795           	-0.136254           	-0.854706           	-0.240327           	
Ar	-1.19055           	0.39685           	-2.77795           	0.945627           	-0.624143           	0.699765           	
Ar	-0.39685           	1.19055           	-2.77795           	1.02745           	1.00473           	-1.30688           	
Ar	-0.39685           	0.39685           	-1.98425           	-0.189242           	-1.28828           	1.32693           	
Ar	-1.19055           	1.19055           	-1.98425           	0.219618           	-1.42145           	0.570106           	
Ar	-1.19055           	0.39685           	-1.19055           	-1.46478           	-0.974987           	1.15244           	
Ar	-0.39685           	1.19055           	-1.19055           	-1.0805           	-0.888665           	-1.04764           	
Ar	-0.39685           	0.39685           	-0.39685           	-0.297615           	0.519563           	-0.140646           	
Ar	-1.19055           	1.19055           	-0.39685           	0.926137           	-1.37813           	0.319915           	
Ar	-1.19055           	0.39685           	0.39685           	0.843184           	-0.306727           	-1.08871           	
Ar	-0.39685           	1.19055           	0.39685           	0.19697           	1.06398           	-0.512992           	
Ar	-0.39685           	0.39685           	1.19055           	-1.47609           	0.576733           	0.293284           	
Ar	-1.19055           	1.19055           	1.19055           	0.730794           	0.171307           	-0.211408           	
Ar	-1.19055           	0.39685           	1.98425           	0.931027           	1.48903           	-0.0692704           	
Ar	-0.39685           	1.19055           	1.98425           	0.825227           	0.275771           	-0.0602963           	
Ar	-0.39685           	0.39685           	2.77795           	-0.0373951           	0.317959           	0.395136           	
Ar	-1.19055           	1.19055           	2.77795           	-0.317684           	0.744427           	0.936891           	
Ar	-1.19055           	1.98425           	-2.77795           	0.141791           	-0.986064           	-0.0529678           	
Ar	-0.39685           	2.77795           	-2.77795           	-1.43158           	1.44704           	-0.000673793           	
Ar	-0.39685           	1.98425           	-1.98425           	0.395446           	0.857345           	1.12302           	
Ar	-1.19055           	2.77795           	-1.98425           	0.813854           	-0.378562           	0.67758           	
Ar	-1.19055           	1.98425           	-1.19055           	-1.13187           	-0.347682           	-0.255108           	
Ar	-0.39685           	2.77795           	-1.19055           	0.668531           	-1.04977           	1.34662           	
Ar	-0.39685           	1.98425           	-0.39685           	-0.975604           	1.38823           	1.32623           	
Ar	-1.19055           	2.77795           	-0.39685           	0.462239           	0.780577           	0.0925761           	
Ar	-1.19055           	1.98425           	0.39685           	-1.03078           	-0.689694           	-1.09889           	
Ar	-0.39685           	2.77795           	0.39685           	0.871466           	0.499586           	1.07596           	
Ar	-0.39685           	1.98425           	1.19055           	0.375629           	-0.7915           	-1.41953           	
Ar	-1.19055           	2.77795           	1.19055           	-1.11007           	-0.716118           	-1.48191           	
Ar	-1.19055           	1.98425           	1.98425           	0.396373           	1.18629           	0.805854           	
Ar	-0.39685           	2.77795           	1.98425           	0.086664           	0.567269           	-1.08213           	
Ar	-0.39685           	1.98425           	2.77795           	-0.668483           	0.942368           	0.000607623           	
Ar	-1.19055           	2.77795           	2.77795           	0.583522           	0.178022           	0.381262           	
Ar	0.39685           	-2.77795           	-2.77795           	0.497413           	0.709383           	0.260067           	
Ar	1.19055           	-1.98425           	-2.77795           	0.390913           	-0.261254           	-0.468778           	
Ar	1.19055           	-2.77795           	-1.98425           	-0.949239           	0.214926           	0.271948           	
Ar	0.39685           	-1.98425           	-1.98425           	-0.541012           	-0.346485           	-0.737888           	
Ar	0.39685           	-2.77795           	-1.19055           	-0.89778           	-1.40373           	-0.0989681           	
Ar	1.19055           	-1.98425           	-1.19055           	-0.810192           	-1.00683           	0.615334           	
Ar	1.19055           	-2.77795           	-0.39685           	-0.784989           	0.896503           	0.292204           	
Ar	0.39685           	-1.98425           	-0.39685           	-1.41186           	-0.449709           	-0.649948           	
Ar	0.39685           	-2.77795           	0.39685           	-0.986878           	0.388772           	-1.217           	
Ar	1.19055           	-1.98425           	0.39685           	0.520843           	-0.460582           	0.39144           	
Ar	1.19055           	-2.77795           	1.19055           	-0.530623           	-1.39605           	-0.408599           	
Ar	0.39685           	-1.98425           	1.19055           	1.23656           	0.501832           	0.760567           	
Ar	0.39685           	-2.77795           	1.98425           	-0.664947           	1.05956           	-0.533929           	
Ar	1.19055           	-1.98425           	1.98425           	1.11411           	-0.914331           	0.550005           	
Ar	1.19055           	-2.77795           	2.77795           	-1.0565           	-0.305146           	0.576692           	
Ar	0.39685           	-1.98425           	2.77795           	0.351645           	0.391627           	1.00028           	
Ar	0.39685           	-1.19055           	-2.77795           	-0.46575           	1.1136           	0.387358           	
Ar	1.19055           	-0.39685           	-2.77795           	1.33357           	1.20871           	1.36807           	
Ar	1.19055           	-1.19055           	-1.98425           	-0.749107           	-1.21105           	0.247419           	
Ar	0.39685           	-0.39685           	-1.98425           	-0.458996           	0.81676           	1.21726           	
Ar	0.39685           	-1.19055           	-1.19055           	-1.50028           	-1.14674           	1.25163           	
Ar	1.19055           	-0.39685           	-1.19055           	-0.401769           	-1.34306           	0.244041           	
Ar	1.19055           	-1.19055           	-0.39685           	-1.07393           	-0.501039           	-0.205823           	
Ar	0.39685           	-0.39685           	-0.39685           	-0.100745           	-0.819801           	0.310266           	
Ar	0.39685           	-1.19055           	0.39685           	-0.983468           	-0.369338           	-1.5043           	
Ar	1.19055           	-0.39685           	0.39685           	1.10034           	1.48927           	0.317746           	
Ar	1.19055           	-1.19055           	1.19055           	0.667888           	-0.409355           	-0.078072           	
Ar	0.39685           	-0.39685           	1.19055           	-0.377482           	-0.508663           	-0.378787           	
Ar	0.39685           	-1.19055           	1.98425           	-0.442141           	0.249195           	-0.159415           	
Ar	1.19055           	-0.39685           	1.98425           	1.31239           	1.29716           	-0.852077           	
Ar	1.19055           	-1.19055           	2.77795           	1.09692           	1.30385           	-0.568396           	
Ar	0.39685           	-0.39685           	2.77795           	0.915824           	-0.5308           	-0.481033           	
Ar	0.39685           	0.39685           	-2.77795           	-0.272862           	-0.0977646           	0.448347           	
Ar	1.19055           	1.19055           	-2.77795           	1.02843           	1.30846           	1.05897           	
Ar	1.19055           	0.39685           	-1.98425           	-0.0940325           	-1.10789           	-0.819794           	
Ar	0.39685           	1.19055           	-1.98425           	-0.0912199           	1.49941           	-0.839944           	
Ar	0.39685           	0.39685           	-1.19055           	-1.2062           	0.734425           	0.181121           	
Ar	1.19055           	1.19055           	-1.19055           	0.22284           	-1.07593           	1.10288           	
Ar	1.19055           	0.39685           	-0.39685           	1.35117           	-0.0111088           	-0.157349           	
Ar	0.39685           	1.19055           	-0.39685           	-0.240976           	-0.131593           	-0.369607           	
Ar	0.39685           	0.39685           	0.39685           	0.414061           	-0.467549           	-0.575183           	
Ar	1.19055           	1.19055           	0.39685           	1.35278           	-0.984601           	0.324437           	
Ar	1.19055           	0.39685           	1.19055           	-0.560983           	0.249502           	-1.28275           	
Ar	0.39685           	1.19055           	1.19055           	1.39448           	-0.154946           	-1.48372           	
Ar	0.39685           	0.39685           	1.98425           	1.02072           	1.25799           	-1.16118           	
Ar	1.19055           	1.19055           	1.98425           	-1.23181           	-0.26611           	-1.17119           	
Ar	1.19055           	0.39685           	2.77795           	-0.564637           	0.034653           	0.993653           	
Ar	0.39685           	1.19055           	2.77795           	1.1236           	-1.17538           	1.34814           	
Ar	0.39685           	1.98425           	-2.77795           	0.793748           	-1.25709           	-0.172391           	
Ar	1.19055           	2.77795           	-2.77795           	-0.796329           	0.00889501           	1.12644           	
Ar	1.19055           	1.98425           	-1.98425           	0.341178           	-1.00992           	-0.850535           	
Ar	0.39685           	2.77795           	-1.98425           	1.27311           	-1.09002           	-0.404716           	
Ar	0.39685           	1.98425           	-1.19055           	0.164819           	-0.144037           	1.27521           	
Ar	1.19055           	2.77795           	-1.19055           	0.389183           	-0.182435           	-0.389163           	
Ar	1.19055           	1.98425           	-0.39685           	0.412581           	-0.594596           	-0.640598           	
Ar	0.39685           	2.77795           	-0.39685           	0.75851           	-0.319438           	0.523712           	
Ar	0.39685           	1.98425           	0.39685           	1.09443           	0.62289           	-0.951057           	
Ar	1.19055           	2.77795           	0.39685           	0.655357           	0.313611           	-0.696021           	
Ar	1.19055           	1.98425           	1.19055           	0.570769           	-0.325518           	-0.522695           	
Ar	0.39685           	2.77795           	1.19055           	-1.03435           	0.385118           	0.91662           	
Ar	0.39685           	1.98425           	1.98425           	-1.34064           	-0.706581           	1.33712           	
Ar	1.19055           	2.77795           	1.98425           	-0.684062           	-0.866348           	-1.26232           	
Ar	1.19055           	1.98425           	2.77795           	0.418336           	0.805435           	0.0240605           	
Ar	0.39685           	2.77795           	2.77795           	0.260813           	-0.238258           	1.27204           	
Ar	1.98425           	-2.77795           	-2.77795           	1.37876           	-1.25855           	-0.831973           	
Ar	2.77795           	-1.98425           	-2.77795           	-0.694562           	1.00692           	0.279008           	
Ar	2.77795           	-2.77795           	-1.98425           	1.33626           	0.668477           	-0.607524           	
Ar	1.98425           	-1.98425           	-1.98425           	-1.04752           	-0.109042           	1.13651           	
Ar	1.98425           	-2.77795           	-1.19055           	-0.236428           	-0.971149           	-0.698433           	
Ar	2.77795           	-1.98425           	-1.19055           	0.747991           	-0.498533           	1.1171           	
Ar	2.77795           	-2.77795           	-0.39685           	0.231883           	-0.332209           	-1.0989           	
Ar	1.98425           	-1.98425           	-0.39685           	0.136274           	0.490693           	-0.534827           	
Ar	1.98425           	-2.77795           	0.39685           	0.381065           	-0.523848           	-1.23881           	
Ar	2.77795           	-1.98425           	0.39685           	-1.0276           	1.24393           	-0.0466523           	
Ar	2.77795           	-2.77795           	1.19055           	-1.18829           	1.18982           	0.125214           	
Ar	1.98425           	-1.98425           	1.19055           	-0.513145           	-0.937621           	-0.377286           	
Ar	1.98425           	-2.77795           	1.98425           	1.27298           	-1.03423           	-1.21823           	
Ar	2.77795           	-1.98425           	1.98425           	-0.767274           	-0.57479           	0.103147           	
Ar	2.77795           	-2.77795           	2.77795           	-1.06349           	0.695747           	0.562418           	
Ar	1.98425           	-1.98425           	2.77795           	-0.254814           	0.0108607           	-1.44554           	
Ar	1.98425           	-1.19055           	-2.77795           	-0.570438           	-1.19013           	-0.347327           	
Ar	2.77795           	-0.39685           	-2.77795           	-0.162222           	0.453105           	-1.36606           	
Ar	2.77795           	-1.19055           	-1.98425           	0.810064           	-0.598706           	-0.459483           	
Ar	1.98425           	-0.39685           	-1.98425           	1.07836           	-0.119344           	-0.724975           	
Ar	1.98425           	-1.19055           	-1.19055           	-0.401016           	0.199336           	-1.04458           	
Ar	2.77795           	-0.39685           	-1.19055           	1.23131           	1.19316           	-0.55178           	
Ar	2.77795           	-1.19055           	-0.39685           	-0.578702           	1.03326           	-0.155593           	
Ar	1.98425           	-0.39685           	-0.39685           	-0.289819           	-1.16689           	0.700037           	
Ar	1.98425           	-1.19055           	0.39685           	1.32044           	-0.723424           	-0.113638           	
Ar	2.77795           	-0.39685           	0.39685           	0.450132           	0.528727           	1.32764           	
Ar	2.77795           	-1.19055           	1.19055           	0.511709           	1.46525           	-1.37191           	
Ar	1.98425           	-0.39685           	1.19055           	-1.26835           	-0.129845           	0.511612           	
Ar	1.98425           	-1.19055           	1.98425           	-1.12729           	-0.752657           	1.34333           	
Ar	2.77795           	-0.39685           	1.98425           	-0.0796579           	-1.10717           	-0.28544           	
Ar	2.77795           	-1.19055           	2.77795           	0.702481           	-0.00122068           	1.34432           	
Ar	1.98425           	-0.39685           	2.77795           	1.16502           	-0.202785           	1.02805           	
Ar	1.98425           	0.39685           	-2.77795           	-0.819492           	0.725478           	0.551886           	
Ar	2.77795           	1.19055           	-2.77795           	0.532028           	-0.997218           	0.815412           	
Ar	2.77795           	0.39685           	-1.98425           	-0.200663           	-1.10965           	-1.41743           	
Ar	1.98425           	1.19055           	-1.98425           	1.19281           	0.847445           	0.541713           	
Ar	1.98425           	0.39685           	-1.19055           	1.08773           	-0.0737228           	0.497546           	
Ar	2.77795           	1.19055           	-1.19055           	1.22293           	0.164896           	-1.14172           	
Ar	2.77795           	0.39685           	-0.39685           	0.301812           	0.544572           	-0.463958           	
Ar	1.98425           	1.19055           	-0.39685           	0.21241           	-0.967962           	-0.140707           	
Ar	1.98425           	0.39685           	0.39685           	-1.50576           	1.24148           	1.28849           	
Ar	2.77795           	1.19055           	0.39685           	1.34567           	0.973622           	-0.423716           	
Ar	2.77795           	0.39685           	1.19055           	0.940995           	-1.27875           	-1.20766           	
Ar	1.98425           	1.19055           	1.19055           	0.0601529           	0.760247           	-0.774458           	
Ar	1.98425           	0.39685           	1.98425           	-0.557163           	-0.873293           	-0.45369           	
Ar	2.77795           	1.19055           	1.98425           	-0.467483           	-1.11336           	-1.11567           	
Ar	2.77795           	0.39685           	2.77795           	-1.3585           	1.48133           	0.241031           	
Ar	1.98425           	1.19055           	2.77795           	0.646163           	1.27139           	-1.1035           	
Ar	1.98425           	1.98425           	-2.77795           	1.01156           	0.140321           	0.871497           	
Ar	2.77795           	2.77795           	-2.77795           	-0.885129           	-1.08015           	1.33395           	
Ar	2.77795           	1.98425           	-1.98425           	0.481277           	-1.07894           	1.06602           	
Ar	1.98425           	2.77795           	-1.98425           	0.337041           	-1.16614           	0.530216           	
Ar	1.98425           	1.98425           	-1.19055           	1.42044           	1.28182           	0.68189           	
Ar	2.77795           	2.77795           	-1.19055           	-1.21995           	-0.0909073           	-0.0672852           	
Ar	2.77795           	1.98425           	-0.39685           	-0.487293           	0.858895           	0.489842           	
Ar	1.98425           	2.77795           	-0.39685           	0.566131           	-1.04147           	0.806905           	
Ar	1.98425           	1.98425           	0.39685           	0.957579           	-0.892998           	0.778817           	
Ar	2.77795           	2.77795           	0.39685           	-0.234119           	1.26013           	0.540781           	
Ar	2.77795           	1.98425           	1.19055           	0.1695           	0.838809           	-0.82832           	
Ar	1.98425           	2.77795           	1.19055           	-0.391732           	1.46064           	-0.478046           	
Ar	1.98425           	1.98425           	1.98425           	-0.490505           	0.509045           	-0.126565           	
Ar	2.77795           	2.77795           	1.98425           	-0.857217           	-0.586791           	0.137711           	
Ar	2.77795           	1.98425           	2.77795           	1.18011           	-0.599228           	-0.0898941           	
Ar	1.98425           	2.77795           	2.77795           	0.429275           	-0.312212           	1.24962           	
