256
7.15123
Ar	-3.12866           	-3.12866           	-3.12866           	-0.331742           	0.198084           	0.0185883           	
Ar	-2.23476           	-2.23476           	-3.12866           	-0.306615           	0.129555           	0.0571016           	
Ar	-2.23476           	-3.12866           	-2.23476           	0.247772           	-0.160351           	0.162709           	
Ar	-3.12866           	-2.23476           	-2.23476           	-0.404438           	0.21731           	-0.466536           	
Ar	-3.12866           	-3.12866           	-1.34086           	0.40016           	-0.366282           	-0.0721923           	
Ar	-2.23476           	-2.23476           	-1.34086           	0.159105           	-0.0344151           	-0.0839669           	
Ar	-2.23476           	-3.12866           	-0.446952           	-0.158117           	0.269029           	0.0649273           	
Ar	-3.12866           	-2.23476           	-0.446952           	-0.488447           	-0.204206           	-0.458545           	
Ar	-3.12866           	-3.12866           	0.446952           	0.01909           	-0.204067           	-0.400951           	
Ar	-2.23476           	-2.23476           	0.446952           	0.242855           	-0.44176           	0.231593           	
Ar	-2.23476           	-3.12866           	1.34086           	0.0817629           	-0.242246           	-0.11254           	
Ar	-3.12866           	-2.23476           	1.34086           	-0.497477           	-0.0176032           	0.57297           	
Ar	-3.12866           	-3.12866           	2.23476           	0.0599667           	-0.336745           	-0.129596           	
Ar	-2.23476           	-2.23476           	2.23476           	-0.375153           	-0.209926           	-0.454502           	
Ar	-2.23476           	-3.12866           	3.12866           	-0.341347           	-0.37668           	-0.264829           	
Ar	-3.12866           	-2.23476           	3.12866           	0.0868028           	0.313682           	0.25671           	
Ar	-3.12866           	-1.34086           	-3.12866           	0.503178           	-0.411348           	-0.016477           	
Ar	-2.23476           	-0.446952           	-3.12866           	-0.0297229           	-0.368538           	0.335272           	
Ar	-2.23476           	-1.34086           	-2.23476           	0.0120744           	0.181809           	-0.411011           	
Ar	-3.12866           	-0.446952           	-2.23476           	0.111465           	-0.142249           	-0.296817           	
Ar	-3.12866           	-1.34086           	-1.34086           	-0.25477           	0.470771           	0.0168925           	
Ar	-2.23476           	-0.446952           	-1.34086           	0.133032           	0.504551           	0.555244           	
Ar	-2.23476           	-1.34086           	-0.446952           	0.108174           	-0.00239599           	-0.323717           	
Ar	-3.12866           	-0.446952           	-0.446952           	0.478919           	0.153708           	0.0223119           	
Ar	-3.12866           	-1.34086           	0.446952           	0.52476           	0.343618           	0.201587           	
Ar	-2.23476           	-0.446952           	0.446952           	-0.337898           	-0.136492           	-0.0269473           	
Ar	-2.23476           	-1.34086           	1.34086           	0.419154           	-0.200228           	0.117659           	
Ar	-3.12866           	-0.446952           	1.34086           	-0.195151           	0.301306           	0.305076           	
Ar	-3.12866           	-1.34086           	2.23476           	-0.457708           	-0.253533           	-0.0553303           	
Ar	-2.23476           	-0.446952           	2.23476           	-0.368377           	0.38919           	0.358375           	
Ar	-2.23476           	-1.34086           	3.12866           	-0.164851           	-0.432494           	0.28693           	
Ar	-3.12866           	-0.446952           	3.12866           	0.352383           	0.231795           	0.249265           	
Ar	-3.12866           	0.446952           	-3.12866           	0.309799           	-0.226945           	-0.295347           	
Ar	-2.23476           	1.34086           	-3.12866           	0.486424           	-0.314939           	0.414316           	
Ar	-2.23476           	0.446952           	-2.23476           	-0.089092           	-0.357093           	0.215719           	
Ar	-3.12866           	1.34086           	-2.23476           	-0.485334           	-0.163734           	-0.46299           	
Ar	-3.12866           	0.446952           	-1.34086           	-0.0119389           	-0.311493           	-0.107263           	
Ar	-2.23476           	1.34086           	-1.34086           	-0.492108           	0.0246124           	-0.348172           	
Ar	-2.23476           	0.446952           	-0.446952           	0.31331           	0.0981613           	-0.0457503           	
Ar	-3.12866           	1.34086           	-0.446952           	-0.339848           	0.261042           	-0.198776           	
Ar	-3.12866           	0.446952           	0.446952           	0.518869           	-0.470723           	-0.075316           	
Ar	-2.23476           	1.34086           	0.446952           	0.207971           	0.412917           	-0.385737           	
Ar	-2.23476           	0.446952           	1.34086           	-0.140592           	0.155803           	-0.056727           	
Ar	-3.12866           	1.34086           	1.34086           	0.0644034           	0.0753137           	0.184289           	
Ar	-3.12866           	0.446952           	2.23476           	-0.119109           	0.517479           	0.383151           	
Ar	-2.23476           	1.34086           	2.23476           	-0.501218           	-0.534768           	-0.322799           	
Ar	-2.23476           	0.446952           	3.12866           	-0.463866           	-0.0154503           	-0.0783372           	
Ar	-3.12866           	1.34086           	3.12866           	-0.0707864           	0.0236987           	0.50223           	
Ar	-3.12866           	2.23476           	-3.12866           	0.0813835           	-0.229905           	0.0581753           	
Ar	-2.23476           	3.12866           	-3.12866           	0.535975           	-0.038496           	-0.222999           	
Ar	-2.23476           	2.23476           	-2.23476           	-0.26063           	-0.0865405           	-0.137767           	
Ar	-3.12866           	3.12866           	-2.23476           	0.164397           	-0.445483           	-0.267066           	
Ar	-3.12866           	2.23476           	-1.34086           	0.279002           	-0.0548182           	0.444691           	
Ar	-2.23476           	3.12866           	-1.34086           	-0.375553           	0.540842           	-0.0222108           	
Ar	-2.23476           	2.23476           	-0.446952           	0.309078           	-0.14518           	-0.046948           	
Ar	-3.12866           	3.12866           	-0.446952           	0.0944004           	-0.115141           	-0.0257618           	
Ar	-3.12866           	2.23476           	0.446952           	0.271944           	-0.0477499           	0.514743           	
Ar	-2.23476           	3.12866           	0.446952           	-0.404222           	0.412721           	-0.00377458           	
Ar	-2.23476           	2.23476           	1.34086           	-0.49982           	-0.0728092           	0.322276           	
Ar	-3.12866           	3.12866           	1.34086           	0.0586973           	-0.103747           	-0.258436           	
Ar	-3.12866           	2.23476           	2.23476           	0.33604           	0.16688           	0.210978           	
Ar	-2.23476           	3.12866           	2.23476           	-0.399555           	-0.235637           	0.321449           	
Ar	-2.23476           	2.23476           	3.12866           	-0.166279           	-0.523548           	-0.275585           	
Ar	-3.12866           	3.12866           	3.12866           	-0.319416           	-0.367844           	-0.276958           	
Ar	-1.34086           	-3.12866           	-3.12866           	0.158715           	0.47249           	0.133817           	
Ar	-0.446952           	-2.23476           	-3.12866           	-0.486061           	-2.27376e-05           	0.57463           	
Ar	-0.446952           	-3.12866           	-2.23476           	-0.011481           	-0.294992           	-0.0153355           	
Ar	-1.34086           	-2.23476           	-2.23476           	-0.0945668           	-0.167957           	-0.144831           	
Ar	-1.34086           	-3.12866           	-1.34086           	0.402001           	-0.13652           	0.338315           	
Ar	-0.446952           	-2.23476           	-1.34086           	0.126448           	0.453434           	-0.307648           	
Ar	-0.446952           	-3.12866           	-0.446952           	0.368354           	0.222561           	0.415187           	
Ar	-1.34086           	-2.23476           	-0.446952           	-0.0184967           	0.354263           	-0.362666           	
Ar	-1.34086           	-3.12866           	0.446952           	-0.294876           	-0.37893           	-0.330259           	
Ar	-0.446952           	-2.23476           	0.446952           	-0.0701182           	-0.167089           	-0.142149           	
Ar	-0.446952           	-3.12866           	1.34086           	0.153266           	0.522883           	-0.211874           	
Ar	-1.34086           	-2.23476           	1.34086           	-0.310746           	-0.530092           	0.344057           	
Ar	-1.34086           	-3.12866           	2.23476           	-0.333944           	-0.0103158           	-0.493151           	
Ar	-0.446952           	-2.23476           	2.23476           	0.151063           	0.426374           	-0.105153           	
Ar	-0.446952           	-3.12866           	3.12866           	0.506574           	0.261462           	0.314282           	
Ar	-1.34086           	-2.23476           	3.12866           	0.247061           	-0.179004           	0.2255           	
Ar	-1.34086           	-1.34086           	-3.12866           	0.439755           	-0.377563           	-0.094154           	
Ar	-0.446952           	-0.446952           	-3.12866           	0.257113           	0.135197           	-0.282107           	
Ar	-0.446952           	-1.34086           	-2.23476           	0.394789           	0.371578           	-0.105082           	
Ar	-1.34086           	-0.446952           	-2.23476           	0.564872           	-0.265453           	0.283784           	
Ar	-1.34086           	-1.34086           	-1.34086           	-0.175105           	0.41907           	0.264451           	
Ar	-0.446952           	-0.446952           	-1.34086           	0.113362           	-0.45859           	0.290314           	
Ar	-0.446952           	-1.34086           	-0.446952           	-0.140409           	-0.261277           	-0.262218           	
Ar	-1.34086           	-0.446952           	-0.446952           	-0.133217           	0.421043           	-0.378059           	
Ar	-1.34086           	-1.34086           	0.446952           	0.261972           	0.360703           	0.439357           	
Ar	-0.446952           	-0.446952           	0.446952           	-0.0215742           	0.0408507           	-0.281862           	
Ar	-0.446952           	-1.34086           	1.34086           	-0.393902           	-0.0863082           	-0.103471           	
Ar	-1.34086           	-0.446952           	1.34086           	0.012286           	-0.396109           	0.587681           	
Ar	-1.34086           	-1.34086           	2.23476           	0.230521           	0.529937           	0.417044           	
Ar	-0.446952           	-0.446952           	2.23476           	-0.472389           	0.527896           	-0.390625           	
Ar	-0.446952           	-1.34086           	3.12866           	0.311737           	-0.214123           	0.584399           	
Ar	-1.34086           	-0.446952           	3.12866           	-0.02164           	0.430496           	-0.416407           	
Ar	-1.34086           	0.446952           	-3.12866           	-0.329154           	-0.276826           	-0.121729           	
Ar	-0.446952           	1.34086           	-3.12866           	-0.09103           	0.121214           	-0.242902           	
Ar	-0.446952           	0.446952           	-2.23476           	0.0312531           	-0.183727           	-0.424414           	
Ar	-1.34086           	1.34086           	-2.23476           	-0.127218           	0.325956           	0.172391           	
Ar	-1.34086           	0.446952           	-1.34086           	0.0912624           	0.463311           	-0.456133           	
Ar	-0.446952           	1.34086           	-1.34086           	0.488134           	-0.0913166           	-0.296287           	
Ar	-0.446952           	0.446952           	-0.446952           	0.477987           	-0.427709           	-0.308566           	
Ar	-1.34086           	1.34086           	-0.446952           	0.297202           	-0.36884           	-0.322886           	
Ar	-1.34086           	0.446952           	0.446952           	0.406919           	0.474154           	0.0189462           	
Ar	-0.446952           	1.34086           	0.446952           	0.393489           	-0.114399           	-0.0927732           	
Ar	-0.446952           	0.446952           	1.34086           	0.477425           	0.0877031           	0.186356           	
Ar	-1.34086           	1.34086           	1.34086           	-0.242133           	0.52793           	-0.234646           	
Ar	-1.34086           	0.446952           	2.23476           	0.0153075           	-0.00773013           	0.137582           	
Ar	-0.446952           	1.34086           	2.23476           	0.0912353           	0.396309           	-0.0786776           	
Ar	-0.446952           	0.446952           	3.12866           	-0.334202           	-0.0793419           	-0.157583           	
Ar	-1.34086           	1.34086           	3.12866           	-0.289993           	-0.158121           	0.307056           	
Ar	-1.34086           	2.23476           	-3.12866           	-0.0859378           	-0.247048           	0.435302           	
Ar	-0.446952           	3.12866           	-3.12866           	0.105839           	-0.51676           	-0.475755           	
Ar	-0.446952           	2.23476           	-2.23476           	0.283295           	0.421416           	0.554354           	
Ar	-1.34086           	3.12866           	-2.23476           	-0.295587           	0.247992           	-0.102261           	
Ar	-1.34086           	2.23476           	-1.34086           	0.111982           	0.158503           	0.541396           	
Ar	-0.446952           	3.12866           	-1.34086           	-0.29949           	0.447627           	0.527111           	
Ar	-0.446952           	2.23476           	-0.446952           	-0.0337938           	-0.103979           	-0.0228352           	
Ar	-1.34086           	3.12866           	-0.446952           	-0.49404           	0.518514           	-0.168742           	
Ar	-1.34086           	2.23476           	0.446952           	-0.0723753           	-0.382602           	0.307871           	
Ar	-0.446952           	3.12866           	0.446952           	0.270384           	-0.141338           	-0.392466           	
Ar	-0.446952           	2.23476           	1.34086           	-0.0203885           	0.303982           	-0.0835601           	
Ar	-1.34086           	3.12866           	1.34086           	-0.182915           	-0.157093           	-0.0443653           	
Ar	-1.34086           	2.23476           	2.23476           	-0.158328           	-0.440711           	-0.165165           	
Ar	-0.446952           	3.12866           	2.23476           	-0.201802           	-0.205041           	-0.45939           	
Ar	-0.446952           	2.23476           	3.12866           	0.196278           	0.438198           	0.255068           	
Ar	-1.34086           	3.12866           	3.12866           	0.139847           	-0.428206           	0.160479           	
Ar	0.446952           	-3.12866           	-3.12866           	0.0691289           	0.0692578           	-0.485716           	
Ar	1.34086           	-2.23476           	-3.12866           	0.546636           	0.106475           	0.588753           	
Ar	1.34086           	-3.12866           	-2.23476           	-0.219934           	-0.532814           	-0.336065           	
Ar	0.446952           	-2.23476           	-2.23476           	-0.509892           	0.268828           	0.078552           	
Ar	0.446952           	-3.12866           	-1.34086           	-0.402016           	-0.318474           	-0.159682           	
Ar	1.34086           	-2.23476           	-1.34086           	0.014766           	0.0298673           	0.239179           	
Ar	1.34086           	-3.12866           	-0.446952           	0.470743           	0.402796           	0.354423           	
Ar	0.446952           	-2.23476           	-0.446952           	-0.292251           	-0.365919           	-0.392834           	
Ar	0.446952           	-3.12866           	0.446952           	-0.251298           	0.361616           	-0.496851           	
Ar	1.34086           	-2.23476           	0.446952           	0.504112           	-0.0654507           	-0.369102           	
Ar	1.34086           	-3.12866           	1.34086           	0.0667623           	0.534935           	0.25611           	
Ar	0.446952           	-2.23476           	1.34086           	0.0813889           	0.514658           	-0.179631           	
Ar	0.446952           	-3.12866           	2.23476           	0.0723132           	-0.27219           	-0.15649           	
Ar	1.34086           	-2.23476           	2.23476           	0.23659           	-0.250825           	-0.429878           	
Ar	1.34086           	-3.12866           	3.12866           	-0.282686           	-0.121584           	-0.192398           	
Ar	0.446952           	-2.23476           	3.12866           	0.0579739           	0.424439           	0.393424           	
Ar	0.446952           	-1.34086           	-3.12866           	-0.300675           	0.328269           	0.254005           	
Ar	1.34086           	-0.446952           	-3.12866           	0.55409           	-0.530896           	0.44404           	
Ar	1.34086           	-1.34086           	-2.23476           	-0.436572           	-0.250937           	0.26344           	
Ar	0.446952           	-0.446952           	-2.23476           	-0.433081           	-0.313739           	-0.344226           	
Ar	0.446952           	-1.34086           	-1.34086           	-0.301841           	0.28428           	-0.351507           	
Ar	1.34086           	-0.446952           	-1.34086           	0.454611           	-0.201244           	-0.379065           	
Ar	1.34086           	-1.34086           	-0.446952           	-0.322848           	0.402326           	-0.0953003           	
Ar	0.446952           	-0.446952           	-0.446952           	0.0210042           	0.0720032           	0.20983           	
Ar	0.446952           	-1.34086           	0.446952           	0.0914682           	0.320574           	-0.45397           	
Ar	1.34086           	-0.446952           	0.446952           	0.399412           	-0.188365           	0.526424           	
Ar	1.34086           	-1.34086           	1.34086           	0.195008           	0.0422168           	0.312477           	
Ar	0.446952           	-0.446952           	1.34086           	-0.148816           	0.0293934           	0.337536           	
Ar	0.446952           	-1.34086           	2.23476           	-0.302604           	0.124078           	-0.455617           	
Ar	1.34086           	-0.446952           	2.23476           	0.461179           	0.222254           	-0.213401           	
Ar	1.34086           	-1.34086           	3.12866           	-0.480876           	0.45167           	-0.471337           	
Ar	0.446952           	-0.446952           	3.12866           	-0.332041           	0.339367           	-0.116626           	
Ar	0.446952           	0.446952           	-3.12866           	-0.210763           	-0.550394           	-0.256515           	
Ar	1.34086           	1.34086           	-3.12866           	0.194278           	0.00186714           	0.371442           	
Ar	1.34086           	0.446952           	-2.23476           	-0.19372           	-0.473578           	0.149801           	
Ar	0.446952           	1.34086           	-2.23476           	-0.147348           	0.457091           	0.51739           	
Ar	0.446952           	0.446952           	-1.34086           	-0.218753           	0.0851861           	0.0173911           	
Ar	1.34086           	1.34086           	-1.34086           	-0.504104           	0.467628           	-0.495431           	
Ar	1.34086           	0.446952           	-0.446952           	0.333774           	-0.40189           	0.184602           	
Ar	0.446952           	1.34086           	-0.446952           	0.378499           	-0.507625           	-0.13536           	
Ar	0.446952           	0.446952           	0.446952           	-0.432731           	-0.457244           	-0.225906           	
Ar	1.34086           	1.34086           	0.446952           	-0.403725           	-0.258027           	-0.428754           	
Ar	1.34086           	0.446952           	1.34086           	-0.0200087           	0.0624663           	-0.423194           	
Ar	0.446952           	1.34086           	1.34086           	0.223818           	-0.310169           	0.134628           	
Ar	0.446952           	0.446952           	2.23476           	-0.00256792           	0.0273681           	0.217005           	
Ar	1.34086           	1.34086           	2.23476           	-0.450595           	0.411277           	0.13188           	
Ar	1.34086           	0.446952           	3.12866           	-0.531034           	-0.374389           	-0.325149           	
Ar	0.446952           	1.34086           	3.12866           	-0.0133005           	-0.347236           	-0.399737           	
Ar	0.446952           	2.23476           	-3.12866           	-0.00838966           	0.517795           	-0.245673           	
Ar	1.34086           	3.12866           	-3.12866           	-0.421616           	0.329381           	-0.197343           	
Ar	1.34086           	2.23476           	-2.23476           	-0.0566338           	0.427907           	-0.0986317           	
Ar	0.446952           	3.12866           	-2.23476           	0.217803           	-0.542731           	0.199296           	
Ar	0.446952           	2.23476           	-1.34086           	0.289391           	-0.0314829           	-0.280454           	
Ar	1.34086           	3.12866           	-1.34086           	0.366539           	-0.374578           	-0.0346679           	
Ar	1.34086           	2.23476           	-0.446952           	-0.0966609           	0.154111           	0.548655           	
Ar	0.446952           	3.12866           	-0.446952           	-0.477484           	0.234772           	0.417716           	
Ar	0.446952           	2.23476           	0.446952           	0.154738           	0.234996           	-0.498889           	
Ar	1.34086           	3.12866           	0.446952           	0.329931           	-0.345218           	-0.29017           	
Ar	1.34086           	2.23476           	1.34086           	0.430536           	0.177649           	-0.314591           	
Ar	0.446952           	3.12866           	1.34086           	-0.412965           	0.28729           	0.570744           	
Ar	0.446952           	2.23476           	2.23476           	-0.109966           	-0.336257           	0.456435           	
Ar	1.34086           	3.12866           	2.23476           	0.291745           	0.412802           	0.469659           	
Ar	1.34086           	2.23476           	3.12866           	-0.106788           	0.13528           	-0.10404           	
Ar	0.446952           	3.12866           	3.12866           	0.1131           	-0.0650947           	0.0773365           	
Ar	2.23476           	-3.12866           	-3.12866           	-0.519396           	0.369501           	-0.310768           	
Ar	3.12866           	-2.23476           	-3.12866           	0.529601           	0.423274           	0.479959           	
Ar	3.12866           	-3.12866           	-2.23476           	0.349489           	0.0110988           	0.172738           	
Ar	2.23476           	-2.23476           	-2.23476           	0.350942           	-0.225884           	0.383475           	
Ar	2.23476           	-3.12866           	-1.34086           	0.561114           	-0.362261           	0.0189084           	
Ar	3.12866           	-2.23476           	-1.34086           	-0.351305           	-0.243969           	-0.236017           	
Ar	3.12866           	-3.12866           	-0.446952           	-0.37839           	0.177322           	-0.0163199           	
Ar	2.23476           	-2.23476           	-0.446952           	-0.519782           	-0.0978467           	-0.145733           	
Ar	2.23476           	-3.12866           	0.446952           	0.450218           	0.326622           	0.545501           	
Ar	3.12866           	-2.23476           	0.446952           	-0.25165           	-0.127191           	-0.0618096           	
Ar	3.12866           	-3.12866           	1.34086           	0.326029           	-0.11533           	-0.234524           	
Ar	2.23476           	-2.23476           	1.34086           	0.515602           	-0.152642           	-0.353466           	
Ar	2.23476           	-3.12866           	2.23476           	0.397733           	-0.370067           	0.213588           	
Ar	3.12866           	-2.23476           	2.23476           	-0.0273571           	0.512132           	0.543659           	
Ar	3.12866           	-3.12866           	3.12866           	-0.24171           	0.506333           	-0.360818           	
Ar	2.23476           	-2.23476           	3.12866           	0.27754           	-0.411886           	-0.0488326           	
Ar	2.23476           	-1.34086           	-3.12866           	0.541865           	-0.259018           	-0.413726           	
Ar	3.12866           	-0.446952           	-3.12866           	-0.0722835           	-0.247544           	0.0443816           	
Ar	3.12866           	-1.34086           	-2.23476           	0.282325           	-0.364239           	-0.171212           	
Ar	2.23476           	-0.446952           	-2.23476           	0.229998           	-0.0846316           	0.257552           	
Ar	2.23476           	-1.34086           	-1.34086           	-0.42964           	-0.325516           	-0.399993           	
Ar	3.12866           	-0.446952           	-1.34086           	-0.163822           	-0.376827           	0.00331955           	
Ar	3.12866           	-1.34086           	-0.446952           	-0.0169452           	-0.546008           	0.189208           	
Ar	2.23476           	-0.446952           	-0.446952           	-0.401186           	-0.0421079           	0.159124           	
Ar	2.23476           	-1.34086           	0.446952           	-0.455355           	0.247439           	0.123241           	
Ar	3.12866           	-0.446952           	0.446952           	-0.315831           	-0.0419347           	0.26731           	
Ar	3.12866           	-1.34086           	1.34086           	0.135679           	-0.0669834           	0.564246           	
Ar	2.23476           	-0.446952           	1.34086           	0.222295           	0.39199           	-0.225514           	
Ar	2.23476           	-1.34086           	2.23476           	-0.331152           	0.107402           	-0.0337978           	
Ar	3.12866           	-0.446952           	2.23476           	-0.00202185           	-0.229513           	0.437525           	
Ar	3.12866           	-1.34086           	3.12866           	-0.342298           	-0.127896           	-0.430207           	
Ar	2.23476           	-0.446952           	3.12866           	-0.241949           	0.239539           	-0.251079           	
Ar	2.23476           	0.446952           	-3.12866           	0.261713           	-0.34432           	-0.241132           	
Ar	3.12866           	1.34086           	-3.12866           	-0.146908           	-0.214248           	0.272714           	
Ar	3.12866           	0.446952           	-2.23476           	0.512558           	-0.138346           	-0.0220628           	
Ar	2.23476           	1.34086           	-2.23476           	0.0379709           	0.0770802           	0.491957           	
Ar	2.23476           	0.446952           	-1.34086           	-0.292548           	-0.354155           	-0.117242           	
Ar	3.12866           	1.34086           	-1.34086           	-0.32613           	0.399397           	-0.267468           	
Ar	3.12866           	0.446952           	-0.446952           	-0.0513012           	-0.498669           	0.395889           	
Ar	2.23476           	1.34086           	-0.446952           	0.415243           	0.0305666           	-0.37584           	
Ar	2.23476           	0.446952           	0.446952           	0.25494           	0.219526           	0.0522182           	
Ar	3.12866           	1.34086           	0.446952           	0.325075           	0.508834           	-0.250459           	
Ar	3.12866           	0.446952           	1.34086           	-0.523832           	0.203633           	-0.0388236           	
Ar	2.23476           	1.34086           	1.34086           	-0.264622           	-0.510189           	0.302883           	
Ar	2.23476           	0.446952           	2.23476           	0.508434           	0.533627           	-0.377679           	
Ar	3.12866           	1.34086           	2.23476           	-0.111457           	0.00468403           	0.255356           	
Ar	3.12866           	0.446952           	3.12866           	-0.217328           	0.243394           	0.457156           	
Ar	2.23476           	1.34086           	3.12866           	0.165772           	0.448521           	0.314337           	
Ar	2.23476           	2.23476           	-3.12866           	0.398646           	-0.169694           	0.371623           	
Ar	3.12866           	3.12866           	-3.12866           	0.196707           	-0.321364           	-0.140026           	
Ar	3.12866           	2.23476           	-2.23476           	0.321209           	0.464833           	-0.462716           	
Ar	2.23476           	3.12866           	-2.23476           	-0.224401           	0.222995           	-0.496098           	
Ar	2.23476           	2.23476           	-1.34086           	0.0254824           	0.23042           	0.263489           	
Ar	3.12866           	3.12866           	-1.34086           	0.487001           	0.497055           	0.309255           	
Ar	3.12866           	2.23476           	-0.446952           	0.192055           	0.438575           	0.300666           	
Ar	2.23476           	3.12866           	-0.446952           	0.314718           	-0.239795           	-0.236866           	
Ar	2.23476           	2.23476           	0.446952           	-0.0277544           	0.0741337           	0.562483           	
Ar	3.12866           	3.12866           	0.446952           	-0.168427           	-0.327008           	0.468788           	
Ar	3.12866           	2.23476           	1.34086           	-0.451918           	-0.495275           	-0.243122           	
Ar	2.23476           	3.12866           	1.34086           	0.420047           	0.232689           	-0.00853143           	
Ar	2.23476           	2.23476           	2.23476           	-0.317807           	-0.0130155           	-0.0859142           	
Ar	3.12866           	3.12866           	2.23476           	-0.280181           	0.29384           	-0.405135           	
Ar	3.12866           	2.23476           	3.12866           	-0.275937           	-0.247591           	0.38124           	
Ar	2.23476           	3.12866           	3.12866           	0.487894           	-0.327503           	0.336078           	
