256
7.15123
Ar	-3.12866           	-3.12866           	-3.12866           	0.596979           	0.867384           	-0.307637           	
Ar	-2.23476           	-2.23476           	-3.12866           	-0.520512           	1.98069           	-1.74733           	
Ar	-2.23476           	-3.12866           	-2.23476           	-2.00121           	-2.05459           	1.14512           	
Ar	-3.12866           	-2.23476           	-2.23476           	1.77529           	1.63672           	1.16119           	
Ar	-3.12866           	-3.12866           	-1.34086           	0.439116           	-1.01543           	-1.03555           	
Ar	-2.23476           	-2.23476           	-1.34086           	-0.312923           	-1.86222           	0.0189441           	
Ar	-2.23476           	-3.12866           	-0.446952           	-0.989546           	-1.25235           	0.835472           	
Ar	-3.12866           	-2.23476           	-0.446952           	-0.84384           	0.624636           	-1.33358           	
Ar	-3.12866           	-3.12866           	0.446952           	-0.232794           	-0.405929           	-0.0377443           	
Ar	-2.23476           	-2.23476           	0.446952           	0.346108           	2.04762           	-0.663556           	
Ar	-2.23476           	-3.12866           	1.34086           	0.299641           	0.473782           	-1.90921           	
Ar	-3.12866           	-2.23476           	1.34086           	1.99394           	1.99408           	2.17008           	
Ar	-3.12866           	-3.12866           	2.23476           	-1.96309           	2.03368           	-1.99755           	
Ar	-2.23476           	-2.23476           	2.23476           	1.18396           	1.63815           	1.73777           	
Ar	-2.23476           	-3.12866           	3.12866           	0.135451           	-0.0935562           	-1.3907           	
Ar	-3.12866           	-2.23476           	3.12866           	1.10184           	1.63433           	-1.15432           	
Ar	-3.12866           	-1.34086           	-3.12866           	-1.08892           	-1.52603           	-0.308069           	
Ar	-2.23476           	-0.446952           	-3.12866           	1.74849           	-0.329059           	-1.79647           	
Ar	-2.23476           	-1.34086           	-2.23476           	-1.79479           	1.47896           	-0.103802           	
Ar	-3.12866           	-0.446952           	-2.23476           	0.169396           	-0.345752           	-0.169216           	
Ar	-3.12866           	-1.34086           	-1.34086           	1.50777           	1.9947           	-1.80847           	
Ar	-2.23476           	-0.446952           	-1.34086           	1.6005           	1.81782           	-1.92742           	
Ar	-2.23476           	-1.34086           	-0.446952           	1.56088           	1.89554           	2.20486           	
Ar	-3.12866           	-0.446952           	-0.446952           	1.56527           	0.908685           	1.72997           	
Ar	-3.12866           	-1.34086           	0.446952           	1.09333           	-1.12669           	-0.476625           	
Ar	-2.23476           	-0.446952           	0.446952           	1.70457           	2.01597           	-0.955328           	
Ar	-2.23476           	-1.34086           	1.34086           	-1.65945           	-1.24377           	-0.382763           	
Ar	-3.12866           	-0.446952           	1.34086           	0.0344139           	-1.66611           	1.38678           	
Ar	-3.12866           	-1.34086           	2.23476           	0.239877           	-1.42009           	0.752699           	
Ar	-2.23476           	-0.446952           	2.23476           	2.13801           	0.790122           	-1.70609           	
Ar	-2.23476           	-1.34086           	3.12866           	-0.240908           	0.127075           	-1.82443           	
Ar	-3.12866           	-0.446952           	3.12866           	-0.0474447           	-0.443247           	2.09199           	
Ar	-3.12866           	0.446952           	-3.12866           	0.0270652           	-1.05319           	1.8745           	
Ar	-2.23476           	1.34086           	-3.12866           	0.022221           	-1.65874           	0.670142           	
Ar	-2.23476           	0.446952           	-2.23476           	-0.457511           	1.47541           	1.64205           	
Ar	-3.12866           	1.34086           	-2.23476           	1.0678           	1.00915           	1.54498           	
Ar	-3.12866           	0.446952           	-1.34086           	2.1144           	1.39052           	-1.81183           	
Ar	-2.23476           	1.34086           	-1.34086           	-0.47806           	-0.74589           	-1.37934           	
Ar	-2.23476           	0.446952           	-0.446952           	-1.30099           	1.5348           	-0.700828           	
Ar	-3.12866           	1.34086           	-0.446952           	1.45365           	1.50199           	2.18789           	
Ar	-3.12866           	0.446952           	0.446952           	1.74949           	-0.909741           	0.20193           	
Ar	-2.23476           	1.34086           	0.446952           	1.927           	1.08363           	1.85728           	
Ar	-2.23476           	0.446952           	1.34086           	1.80929           	-1.06013           	-1.30894           	
Ar	-3.12866           	1.34086           	1.34086           	1.47408           	1.00291           	-0.869089           	
Ar	-3.12866           	0.446952           	2.23476           	-0.0654768           	-1.62543           	-1.50672           	
Ar	-2.23476           	1.34086           	2.23476           	-0.633123           	1.48319           	1.60103           	
Ar	-2.23476           	0.446952           	3.12866           	-1.29784           	1.42677           	0.878511           	
Ar	-3.12866           	1.34086           	3.12866           	-1.10773           	-1.22211           	-1.98042           	
Ar	-3.12866           	2.23476           	-3.12866           	-0.485138           	-0.482284           	1.65298           	
Ar	-2.23476           	3.12866           	-3.12866           	0.815968           	-1.19946           	1.04193           	
Ar	-2.23476           	2.23476           	-2.23476           	0.794159           	-1.62079           	-1.98084           	
Ar	-3.12866           	3.12866           	-2.23476           	-1.21361           	-1.86461           	1.20138           	
Ar	-3.12866           	2.23476           	-1.34086           	-1.56603           	1.98549           	-1.97178           	
Ar	-2.23476           	3.12866           	-1.34086           	-0.873041           	1.28875           	1.12972           	
Ar	-2.23476           	2.23476           	-0.446952           	0.259804           	-0.947549           	1.60289           	
Ar	-3.12866           	3.12866           	-0.446952           	0.755017           	0.460141           	0.973041           	
Ar	-3.12866           	2.23476           	0.446952           	0.146348           	1.20311           	0.286773           	
Ar	-2.23476           	3.12866           	0.446952           	-1.18484           	-2.07544           	1.16326           	
Ar	-2.23476           	2.23476           	1.34086           	-1.16332           	-0.519767           	-1.43206           	
Ar	-3.12866           	3.12866           	1.34086           	-1.72004           	-1.87462           	-0.532922           	
Ar	-3.12866           	2.23476           	2.23476           	1.32382           	0.960353           	-0.055114           	
Ar	-2.23476           	3.12866           	2.23476           	1.34491           	1.78756           	0.178871           	
Ar	-2.23476           	2.23476           	3.12866           	0.336594           	-1.9493           	0.0513223           	
Ar	-3.12866           	3.12866           	3.12866           	0.366744           	-0.781525           	-0.772966           	
Ar	-1.34086           	-3.12866           	-3.12866           	-0.713237           	1.51909           	0.378083           	
Ar	-0.446952           	-2.23476           	-3.12866           	-1.32005           	0.103289           	-1.27481           	
Ar	-0.446952           	-3.12866           	-2.23476           	1.65493           	-1.92118           	2.0269           	
Ar	-1.34086           	-2.23476           	-2.23476           	-0.267998           	-1.06521           	2.05005           	
Ar	-1.34086           	-3.12866           	-1.34086           	-1.31444           	-0.187723           	-0.58275           	
Ar	-0.446952           	-2.23476           	-1.34086           	-0.744569           	0.133049           	-0.358772           	
Ar	-0.446952           	-3.12866           	-0.446952           	0.724443           	-0.713948           	-1.51146           	
Ar	-1.34086           	-2.23476           	-0.446952           	-1.54037           	-1.53985           	-1.83694           	
Ar	-1.34086           	-3.12866           	0.446952           	0.640433           	0.837552           	-1.68764           	
Ar	-0.446952           	-2.23476           	0.446952           	-1.51795           	-0.966525           	-0.370566           	
Ar	-0.446952           	-3.12866           	1.34086           	-0.288978           	0.361051           	-0.964511           	
Ar	-1.34086           	-2.23476           	1.34086           	2.09104           	1.08182           	1.23738           	
Ar	-1.34086           	-3.12866           	2.23476           	-1.39348           	0.565928           	1.41479           	
Ar	-0.446952           	-2.23476           	2.23476           	-1.57628           	-1.87289           	-1.76346           	
Ar	-0.446952           	-3.12866           	3.12866           	-1.73592           	-1.14652           	0.147413           	
Ar	-1.34086           	-2.23476           	3.12866           	-0.31674           	0.149727           	-1.83258           	
Ar	-1.34086           	-1.34086           	-3.12866           	1.32642           	-1.29665           	-0.447926           	
Ar	-0.446952           	-0.446952           	-3.12866           	1.8169           	-0.79621           	0.110817           	
Ar	-0.446952           	-1.34086           	-2.23476           	1.98189           	1.88504           	-1.16467           	
Ar	-1.34086           	-0.446952           	-2.23476           	-1.91545           	-1.80373           	-0.0325953           	
Ar	-1.34086           	-1.34086           	-1.34086           	-0.284078           	-0.0518953           	-1.78458           	
Ar	-0.446952           	-0.446952           	-1.34086           	0.753345           	-0.131678           	1.39584           	
Ar	-0.446952           	-1.34086           	-0.446952           	-0.218981           	0.515661           	-0.151273           	
Ar	-1.34086           	-0.446952           	-0.446952           	-1.01389           	0.980197           	0.0744326           	
Ar	-1.34086           	-1.34086           	0.446952           	-0.775421           	1.28509           	1.02651           	
Ar	-0.446952           	-0.446952           	0.446952           	1.37393           	-1.20247           	-0.936799           	
Ar	-0.446952           	-1.34086           	1.34086           	1.54328           	-2.04687           	-0.134853           	
Ar	-1.34086           	-0.446952           	1.34086           	-1.11434           	1.81084           	1.16753           	
Ar	-1.34086           	-1.34086           	2.23476           	0.998409           	1.62191           	0.939533           	
Ar	-0.446952           	-0.446952           	2.23476           	1.83567           	1.74728           	1.2344           	
Ar	-0.446952           	-1.34086           	3.12866           	-0.406621           	-0.707622           	-0.930533           	
Ar	-1.34086           	-0.446952           	3.12866           	-0.189268           	2.08654           	1.03639           	
Ar	-1.34086           	0.446952           	-3.12866           	-1.00313           	-0.303266           	-0.56099           	
Ar	-0.446952           	1.34086           	-3.12866           	0.847527           	0.723654           	-1.69383           	
Ar	-0.446952           	0.446952           	-2.23476           	-1.28774           	1.98905           	1.68985           	
Ar	-1.34086           	1.34086           	-2.23476           	1.7407           	1.19215           	-1.62566           	
Ar	-1.34086           	0.446952           	-1.34086           	-1.40579           	0.564614           	-1.57394           	
Ar	-0.446952           	1.34086           	-1.34086           	0.461286           	1.49109           	-1.87614           	
Ar	-0.446952           	0.446952           	-0.446952           	-0.580881           	0.318674           	1.84437           	
Ar	-1.34086           	1.34086           	-0.446952           	-1.85105           	-0.0164726           	1.47861           	
Ar	-1.34086           	0.446952           	0.446952           	1.38528           	1.61772           	-1.34205           	
Ar	-0.446952           	1.34086           	0.446952           	-1.75495           	-0.74237           	-1.36855           	
Ar	-0.446952           	0.446952           	1.34086           	1.28337           	0.295311           	0.426785           	
Ar	-1.34086           	1.34086           	1.34086           	-1.48732           	-1.02798           	-0.962598           	
Ar	-1.34086           	0.446952           	2.23476           	-1.17922           	-0.274911           	-1.08659           	
Ar	-0.446952           	1.34086           	2.23476           	-1.69906           	-0.705028           	2.20416           	
Ar	-0.446952           	0.446952           	3.12866           	-1.32279           	-0.070009           	0.655737           	
Ar	-1.34086           	1.34086           	3.12866           	-0.894788           	-1.77954           	0.0337856           	
Ar	-1.34086           	2.23476           	-3.12866           	-0.768989           	-0.319611           	-1.76058           	
Ar	-0.446952           	3.12866           	-3.12866           	-1.13432           	-0.129846           	0.321547           	
Ar	-0.446952           	2.23476           	-2.23476           	-1.86541           	-0.915383           	-0.173771           	
Ar	-1.34086           	3.12866           	-2.23476           	-1.20552           	-0.629519           	1.18246           	
Ar	-1.34086           	2.23476           	-1.34086           	-0.572132           	-1.51697           	-0.63527           	
Ar	-0.446952           	3.12866           	-1.34086           	1.85659           	-0.963475           	0.435344           	
Ar	-0.446952           	2.23476           	-0.446952           	-1.31571           	-0.101877           	-1.9526           	
Ar	-1.34086           	3.12866           	-0.446952           	-0.400368           	0.239874           	-0.559034           	
Ar	-1.34086           	2.23476           	0.446952           	-0.405909           	0.957902           	1.46955           	
Ar	-0.446952           	3.12866           	0.446952           	-1.95987           	2.10393           	1.78861           	
Ar	-0.446952           	2.23476           	1.34086           	0.075847           	-0.835882           	-0.644041           	
Ar	-1.34086           	3.12866           	1.34086           	0.317203           	0.0706135           	1.32471           	
Ar	-1.34086           	2.23476           	2.23476           	-1.57095           	0.246021           	-1.70371           	
Ar	-0.446952           	3.12866           	2.23476           	0.257212           	1.08132           	-0.234631           	
Ar	-0.446952           	2.23476           	3.12866           	-0.770032           	-1.66164           	0.346998           	
Ar	-1.34086           	3.12866           	3.12866           	0.596632           	-1.97587           	1.48212           	
Ar	0.446952           	-3.12866           	-3.12866           	-1.17772           	-1.25077           	-0.732794           	
Ar	1.34086           	-2.23476           	-3.12866           	-1.12839           	0.389676           	1.60568           	
Ar	1.34086           	-3.12866           	-2.23476           	0.314505           	2.02458           	0.450542           	
Ar	0.446952           	-2.23476           	-2.23476           	-0.425642           	2.10552           	0.441432           	
Ar	0.446952           	-3.12866           	-1.34086           	-0.846735           	0.0105479           	1.70415           	
Ar	1.34086           	-2.23476           	-1.34086           	0.511158           	-1.84307           	-0.338276           	
Ar	1.34086           	-3.12866           	-0.446952           	-0.373832           	-1.37321           	2.00634           	
Ar	0.446952           	-2.23476           	-0.446952           	-0.0756081           	0.924817           	0.974621           	
Ar	0.446952           	-3.12866           	0.446952           	1.69169           	-2.01604           	1.41158           	
Ar	1.34086           	-2.23476           	0.446952           	-0.171008           	0.62141           	1.53431           	
Ar	1.34086           	-3.12866           	1.34086           	-0.898589           	1.4845           	-1.8295           	
Ar	0.446952           	-2.23476           	1.34086           	0.370551           	-1.81472           	0.658773           	
Ar	0.446952           	-3.12866           	2.23476           	-0.233472           	0.540602           	0.570317           	
Ar	1.34086           	-2.23476           	2.23476           	-1.99263           	-2.05586           	0.562801           	
Ar	1.34086           	-3.12866           	3.12866           	0.450735           	-0.861782           	-1.53969           	
Ar	0.446952           	-2.23476           	3.12866           	-0.054818           	1.69019           	-1.28416           	
Ar	0.446952           	-1.34086           	-3.12866           	1.60884           	-0.854464           	-0.558772           	
Ar	1.34086           	-0.446952           	-3.12866           	1.40548           	1.11074           	-1.74699           	
Ar	1.34086           	-1.34086           	-2.23476           	0.170402           	0.631616           	-1.66443           	
Ar	0.446952           	-0.446952           	-2.23476           	-0.627717           	-1.71021           	1.05558           	
Ar	0.446952           	-1.34086           	-1.34086           	-1.30311           	-0.567989           	0.42704           	
Ar	1.34086           	-0.446952           	-1.34086           	-1.13068           	1.84338           	0.710921           	
Ar	1.34086           	-1.34086           	-0.446952           	1.53003           	-0.560917           	-0.861514           	
Ar	0.446952           	-0.446952           	-0.446952           	-0.109354           	-0.512735           	-0.818777           	
Ar	0.446952           	-1.34086           	0.446952           	-1.75625           	1.97881           	0.418039           	
Ar	1.34086           	-0.446952           	0.446952           	-1.29401           	-0.246825           	-0.00480858           	
Ar	1.34086           	-1.34086           	1.34086           	-0.576234           	-0.808806           	1.23933           	
Ar	0.446952           	-0.446952           	1.34086           	0.866928           	-1.57415           	0.23703           	
Ar	0.446952           	-1.34086           	2.23476           	1.12187           	0.637069           	-1.24439           	
Ar	1.34086           	-0.446952           	2.23476           	1.45937           	2.05017           	-0.856008           	
Ar	1.34086           	-1.34086           	3.12866           	0.305252           	-1.42377           	0.674601           	
Ar	0.446952           	-0.446952           	3.12866           	-1.47741           	-0.51363           	0.404939           	
Ar	0.446952           	0.446952           	-3.12866           	1.23545           	-1.15442           	1.94262           	
Ar	1.34086           	1.34086           	-3.12866           	-1.83577           	0.77704           	-0.683152           	
Ar	1.34086           	0.446952           	-2.23476           	-0.652611           	1.0616           	-0.817375           	
Ar	0.446952           	1.34086           	-2.23476           	1.76736           	1.80841           	1.0344           	
Ar	0.446952           	0.446952           	-1.34086           	-0.447148           	-0.938648           	-1.88745           	
Ar	1.34086           	1.34086           	-1.34086           	-1.41752           	1.96909           	-1.36299           	
Ar	1.34086           	0.446952           	-0.446952           	0.82144           	0.920143           	1.37267           	
Ar	0.446952           	1.34086           	-0.446952           	1.57898           	0.208697           	1.3098           	
Ar	0.446952           	0.446952           	0.446952           	-1.48673           	-1.65687           	1.98463           	
Ar	1.34086           	1.34086           	0.446952           	1.18981           	-1.09347           	-0.642036           	
Ar	1.34086           	0.446952           	1.34086           	-0.614954           	-2.02884           	0.302142           	
Ar	0.446952           	1.34086           	1.34086           	-0.882035           	-1.8238           	-1.03386           	
Ar	0.446952           	0.446952           	2.23476           	0.436746           	-0.435596           	2.12634           	
Ar	1.34086           	1.34086           	2.23476           	1.6213           	-0.839056           	1.82171           	
Ar	1.34086           	0.446952           	3.12866           	0.446002           	0.75461           	-1.22997           	
Ar	0.446952           	1.34086           	3.12866           	0.56049           	1.3779           	-1.37392           	
Ar	0.446952           	2.23476           	-3.12866           	1.19943           	0.0285185           	1.64482           	
Ar	1.34086           	3.12866           	-3.12866           	0.362401           	-0.563321           	-0.259518           	
Ar	1.34086           	2.23476           	-2.23476           	-0.5375           	-0.00923477           	0.182207           	
Ar	0.446952           	3.12866           	-2.23476           	-0.76257           	-0.990249           	1.18734           	
Ar	0.446952           	2.23476           	-1.34086           	0.597328           	0.435611           	1.25709           	
Ar	1.34086           	3.12866           	-1.34086           	-1.31023           	1.59439           	1.53189           	
Ar	1.34086           	2.23476           	-0.446952           	-0.342153           	-0.139686           	-1.01674           	
Ar	0.446952           	3.12866           	-0.446952           	-0.425512           	-0.689202           	0.242798           	
Ar	0.446952           	2.23476           	0.446952           	-0.813501           	1.79761           	-1.11563           	
Ar	1.34086           	3.12866           	0.446952           	-0.0415408           	0.187282           	-1.85077           	
Ar	1.34086           	2.23476           	1.34086           	0.586475           	-0.78411           	0.27635           	
Ar	0.446952           	3.12866           	1.34086           	0.0215974           	1.6191           	1.81163           	
Ar	0.446952           	2.23476           	2.23476           	1.76401           	-1.08922           	-0.310646           	
Ar	1.34086           	3.12866           	2.23476           	-0.26348           	0.189028           	0.797703           	
Ar	1.34086           	2.23476           	3.12866           	-1.28585           	-1.38447           	-0.879723           	
Ar	0.446952           	3.12866           	3.12866           	1.97318           	-0.653882           	-1.39837           	
Ar	2.23476           	-3.12866           	-3.12866           	1.29537           	1.04478           	0.56054           	
Ar	3.12866           	-2.23476           	-3.12866           	-1.93108           	-1.55155           	1.96994           	
Ar	3.12866           	-3.12866           	-2.23476           	0.313656           	-0.324241           	1.65451           	
Ar	2.23476           	-2.23476           	-2.23476           	1.19996           	1.67503           	-0.271244           	
Ar	2.23476           	-3.12866           	-1.34086           	1.35113           	0.0906859           	1.04324           	
Ar	3.12866           	-2.23476           	-1.34086           	-0.582222           	-2.05854           	0.549311           	
Ar	3.12866           	-3.12866           	-0.446952           	-0.980297           	1.74629           	1.55869           	
Ar	2.23476           	-2.23476           	-0.446952           	0.710991           	-0.688012           	-0.365317           	
Ar	2.23476           	-3.12866           	0.446952           	-0.701006           	0.0669564           	0.348815           	
Ar	3.12866           	-2.23476           	0.446952           	0.421204           	-0.130685           	1.79353           	
Ar	3.12866           	-3.12866           	1.34086           	1.02477           	-1.00614           	0.725271           	
Ar	2.23476           	-2.23476           	1.34086           	-0.624394           	-0.896401           	1.27231           	
Ar	2.23476           	-3.12866           	2.23476           	-0.86416           	1.45807           	-1.16496           	
Ar	3.12866           	-2.23476           	2.23476           	-1.41935           	0.487208           	-1.60297           	
Ar	3.12866           	-3.12866           	3.12866           	0.31134           	-0.332484           	0.586314           	
Ar	2.23476           	-2.23476           	3.12866           	-0.855117           	1.12611           	0.626373           	
Ar	2.23476           	-1.34086           	-3.12866           	1.69613           	-2.02501           	0.259626           	
Ar	3.12866           	-0.446952           	-3.12866           	1.04512           	0.726795           	1.67021           	
Ar	3.12866           	-1.34086           	-2.23476           	-1.5299           	2.0666           	-0.37587           	
Ar	2.23476           	-0.446952           	-2.23476           	0.82085           	0.316985           	1.59204           	
Ar	2.23476           	-1.34086           	-1.34086           	0.40468           	-0.829069           	-1.52713           	
Ar	3.12866           	-0.446952           	-1.34086           	-1.07975           	0.58735           	-0.324937           	
Ar	3.12866           	-1.34086           	-0.446952           	-2.01714           	1.764           	-0.979906           	
Ar	2.23476           	-0.446952           	-0.446952           	-1.18017           	-1.82617           	1.6059           	
Ar	2.23476           	-1.34086           	0.446952           	-0.781202           	0.525985           	-0.839621           	
Ar	3.12866           	-0.446952           	0.446952           	1.80705           	1.71168           	-1.82655           	
Ar	3.12866           	-1.34086           	1.34086           	0.223718           	1.23699           	-1.75296           	
Ar	2.23476           	-0.446952           	1.34086           	-1.72636           	0.111287           	1.07243           	
Ar	2.23476           	-1.34086           	2.23476           	1.94579           	0.622202           	1.02599           	
Ar	3.12866           	-0.446952           	2.23476           	-0.639783           	-0.727769           	-0.770059           	
Ar	3.12866           	-1.34086           	3.12866           	-1.25744           	1.71772           	0.499469           	
Ar	2.23476           	-0.446952           	3.12866           	-0.782642           	-1.53285           	-1.02622           	
Ar	2.23476           	0.446952           	-3.12866           	0.894355           	-1.50917           	-1.37525           	
Ar	3.12866           	1.34086           	-3.12866           	1.91638           	-0.648523           	-1.10282           	
Ar	3.12866           	0.446952           	-2.23476           	1.31258           	0.611089           	1.52176           	
Ar	2.23476           	1.34086           	-2.23476           	-1.73674           	0.247314           	1.1204           	
Ar	2.23476           	0.446952           	-1.34086           	-1.56136           	-1.69979           	0.244355           	
Ar	3.12866           	1.34086           	-1.34086           	-1.31239           	-1.38533           	-1.7574           	
Ar	3.12866           	0.446952           	-0.446952           	1.76197           	-1.61037           	0.963404           	
Ar	2.23476           	1.34086           	-0.446952           	0.578267           	-0.209336           	-1.8774           	
Ar	2.23476           	0.446952           	0.446952           	1.81014           	0.574035           	1.93892           	
Ar	3.12866           	1.34086           	0.446952           	0.099909           	1.83221           	-1.70697           	
Ar	3.12866           	0.446952           	1.34086           	1.07562           	0.555741           	-1.11754           	
Ar	2.23476           	1.34086           	1.34086           	1.70231           	0.301303           	0.332537           	
Ar	2.23476           	0.446952           	2.23476           	-1.61022           	-0.556936           	-1.16941           	
Ar	3.12866           	1.34086           	2.23476           	1.91348           	-0.252862           	1.1765           	
Ar	3.12866           	0.446952           	3.12866           	0.824179           	0.226594           	1.57531           	
Ar	2.23476           	1.34086           	3.12866           	-1.14117           	0.955021           	-1.92306           	
Ar	2.23476           	2.23476           	-3.12866           	-0.896628           	0.546175           	-1.43483           	
Ar	3.12866           	3.12866           	-3.12866           	2.06871           	-1.04638           	0.45443           	
Ar	3.12866           	2.23476           	-2.23476           	-2.01839           	-1.40706           	-1.08457           	
Ar	2.23476           	3.12866           	-2.23476           	1.92246           	0.733663           	-1.3654           	
Ar	2.23476           	2.23476           	-1.34086           	-1.99421           	-0.361534           	1.28894           	
Ar	3.12866           	3.12866           	-1.34086           	-1.10981           	-0.83005           	-0.522799           	
Ar	3.12866           	2.23476           	-0.446952           	1.22466           	-0.399454           	1.01886           	
Ar	2.23476           	3.12866           	-0.446952           	2.05718           	-0.6568           	-1.34704           	
Ar	2.23476           	2.23476           	0.446952           	1.02398           	-2.00344           	0.978154           	
Ar	3.12866           	3.12866           	0.446952           	0.389585           	-1.1038           	-0.179862           	
Ar	3.12866           	2.23476           	1.34086           	0.468456           	0.0403902           	-1.74672           	
Ar	2.23476           	3.12866           	1.34086           	1.03556           	-0.0617215           	-0.694507           	
Ar	2.23476           	2.23476           	2.23476           	-0.719713           	-0.0393022           	-0.00296932           	
Ar	3.12866           	3.12866           	2.23476           	0.197648           	-0.287665           	-1.38234           	
Ar	3.12866           	2.23476           	3.12866           	0.83418           	-0.24106           	0.35472           	
Ar	2.23476           	3.12866           	3.12866           	-0.0865853           	0.68994           	1.62327           	
